(PID.TID 0000.0001) 
(PID.TID 0000.0001) // ======================================================
(PID.TID 0000.0001) //                      MITgcm UV
(PID.TID 0000.0001) //                      =========
(PID.TID 0000.0001) // ======================================================
(PID.TID 0000.0001) // execution environment starting up...
(PID.TID 0000.0001) 
(PID.TID 0000.0001) // MITgcmUV version:  checkpoint65g
(PID.TID 0000.0001) // Build user:        jahn
(PID.TID 0000.0001) // Build host:        node199
(PID.TID 0000.0001) // Build date:        Mon Dec  8 13:42:02 EST 2014
(PID.TID 0000.0001) 
(PID.TID 0000.0001) // =======================================================
(PID.TID 0000.0001) // Execution Environment parameter file "eedata"
(PID.TID 0000.0001) // =======================================================
(PID.TID 0000.0001) ># Example "eedata" file
(PID.TID 0000.0001) ># Lines beginning "#" are comments
(PID.TID 0000.0001) ># nTx - No. threads per process in X
(PID.TID 0000.0001) ># nTy - No. threads per process in Y
(PID.TID 0000.0001) > &EEPARMS
(PID.TID 0000.0001) > nTx=1,nTy=1
(PID.TID 0000.0001) > /
(PID.TID 0000.0001) ># Note: Some systems use & as the
(PID.TID 0000.0001) ># namelist terminator. Other systems
(PID.TID 0000.0001) ># use a / character (as shown here).
(PID.TID 0000.0001) 
(PID.TID 0000.0001) // =======================================================
(PID.TID 0000.0001) // Computational Grid Specification ( see files "SIZE.h" )
(PID.TID 0000.0001) //                                  ( and "eedata"       )
(PID.TID 0000.0001) // =======================================================
(PID.TID 0000.0001)      nPx =    1 ; /* No. processes in X */
(PID.TID 0000.0001)      nPy =    1 ; /* No. processes in Y */
(PID.TID 0000.0001)      nSx =    1 ; /* No. tiles in X per process */
(PID.TID 0000.0001)      nSy =    1 ; /* No. tiles in Y per process */
(PID.TID 0000.0001)      sNx =    1 ; /* Tile size in X */
(PID.TID 0000.0001)      sNy =    1 ; /* Tile size in Y */
(PID.TID 0000.0001)      OLx =    2 ; /* Tile overlap distance in X */
(PID.TID 0000.0001)      OLy =    2 ; /* Tile overlap distance in Y */
(PID.TID 0000.0001)      nTx =    1 ; /* No. threads in X per process */
(PID.TID 0000.0001)      nTy =    1 ; /* No. threads in Y per process */
(PID.TID 0000.0001)       Nr =   35 ; /* No. levels in the vertical   */
(PID.TID 0000.0001)       Nx =    1 ; /* Total domain size in X ( = nPx*nSx*sNx ) */
(PID.TID 0000.0001)       Ny =    1 ; /* Total domain size in Y ( = nPy*nSy*sNy ) */
(PID.TID 0000.0001)   nTiles =    1 ; /* Total no. tiles per process ( = nSx*nSy ) */
(PID.TID 0000.0001)   nProcs =    1 ; /* Total no. processes ( = nPx*nPy ) */
(PID.TID 0000.0001) nThreads =    1 ; /* Total no. threads per process ( = nTx*nTy ) */
(PID.TID 0000.0001) usingMPI =    F ; /* Flag used to control whether MPI is in use */
(PID.TID 0000.0001)                   /*  note: To execute a program with MPI calls */
(PID.TID 0000.0001)                   /*  it must be launched appropriately e.g     */
(PID.TID 0000.0001)                   /*  "mpirun -np 64 ......"                    */
(PID.TID 0000.0001) useCoupler=    F ;/* Flag used to control communications with   */
(PID.TID 0000.0001)                   /*  other model components, through a coupler */
(PID.TID 0000.0001) debugMode =    F ; /* print debug msg. (sequence of S/R calls)  */
(PID.TID 0000.0001) printMapIncludesZeros=    F ; /* print zeros in Std.Output maps */
(PID.TID 0000.0001) maxLengthPrt1D=   65 /* maxLength of 1D array printed to StdOut */
(PID.TID 0000.0001) 
(PID.TID 0000.0001) // ======================================================
(PID.TID 0000.0001) // Mapping of tiles to threads
(PID.TID 0000.0001) // ======================================================
(PID.TID 0000.0001) // -o- Thread   1, tiles (   1:   1,   1:   1)
(PID.TID 0000.0001) 
(PID.TID 0000.0001) // ======================================================
(PID.TID 0000.0001) // Tile <-> Tile connectvity table
(PID.TID 0000.0001) // ======================================================
(PID.TID 0000.0001) // Tile number: 000001 (process no. = 000000)
(PID.TID 0000.0001) //        WEST: Tile = 000001, Process = 000000, Comm = put
(PID.TID 0000.0001) //                bi = 000001, bj = 000001
(PID.TID 0000.0001) //        EAST: Tile = 000001, Process = 000000, Comm = put
(PID.TID 0000.0001) //                bi = 000001, bj = 000001
(PID.TID 0000.0001) //       SOUTH: Tile = 000001, Process = 000000, Comm = put
(PID.TID 0000.0001) //                bi = 000001, bj = 000001
(PID.TID 0000.0001) //       NORTH: Tile = 000001, Process = 000000, Comm = put
(PID.TID 0000.0001) //                bi = 000001, bj = 000001
(PID.TID 0000.0001) 
(PID.TID 0000.0001)  INI_PARMS: opening model parameter file "data"
(PID.TID 0000.0001)  OPEN_COPY_DATA_FILE: opening file data
(PID.TID 0000.0001) // =======================================================
(PID.TID 0000.0001) // Removing comments from "data"
(PID.TID 0000.0001) // =======================================================
(PID.TID 0000.0001)    1 &PARM01
(PID.TID 0000.0001)    2 tRef= 26.5, 26.1, 26., 25.5, 25.4, 24.9, 24.5, 24.0, 23.7,
(PID.TID 0000.0001)    3       23.3, 23.1, 22.8, 22.5, 22.1, 21.6, 20.6, 19.5, 18.4,
(PID.TID 0000.0001)    4       17.3, 16.6, 15.5, 14.6, 13.8, 13.1, 11.6, 10.1, 7.7,
(PID.TID 0000.0001)    5       5.3, 4.1, 3.7, 3.7, 3.4, 3.0, 2.8, 2.6,
(PID.TID 0000.0001)    6 sRef= 35*35.00,
(PID.TID 0000.0001)    7 no_slip_sides=.false.,
(PID.TID 0000.0001)    8 no_slip_bottom=.TRUE.,
(PID.TID 0000.0001)    9 viscAz=0.e0,
(PID.TID 0000.0001)   10 viscAh=0.e0,
(PID.TID 0000.0001)   11 diffKhT=1.E2,
(PID.TID 0000.0001)   12 diffKzT=1.E-4,
(PID.TID 0000.0001)   13 diffKhS=0.D0,
(PID.TID 0000.0001)   14 diffKzS=0.D0,
(PID.TID 0000.0001)   15 beta=1.E-11,
(PID.TID 0000.0001)   16 tAlpha=2.E-4,
(PID.TID 0000.0001)   17 sBeta =7.4E-4,
(PID.TID 0000.0001)   18 gravity=9.81,
(PID.TID 0000.0001)   19 gBaro=9.81,
(PID.TID 0000.0001)   20 rigidLid=.TRUE.,
(PID.TID 0000.0001)   21 implicitFreeSurface=.false.,
(PID.TID 0000.0001)   22 eosType='JMD95Z',
(PID.TID 0000.0001)   23 saltStepping=.FALSE.,
(PID.TID 0000.0001)   24 tempStepping=.TRUE.,
(PID.TID 0000.0001)   25 tempAdvection=.TRUE.,
(PID.TID 0000.0001)   26 momStepping=.FALSE.,
(PID.TID 0000.0001)   27 implicitDiffusion=.true.,
(PID.TID 0000.0001)   28 implicitViscosity=.true.,
(PID.TID 0000.0001)   29 allowFreezing=.false.,
(PID.TID 0000.0001)   30 useSingleCpuIO=.TRUE.,
(PID.TID 0000.0001)   31 useCDscheme=.FALSE.,
(PID.TID 0000.0001)   32 tempAdvScheme = 3,
(PID.TID 0000.0001)   33 saltAdvScheme = 3,
(PID.TID 0000.0001)   34 readBinaryPrec= 64,
(PID.TID 0000.0001)   35 writeBinaryPrec= 64,
(PID.TID 0000.0001)   36 /
(PID.TID 0000.0001)   37
(PID.TID 0000.0001)   38 &PARM02
(PID.TID 0000.0001)   39 cg2dMaxIters=300,
(PID.TID 0000.0001)   40 cg2dTargetResidual=1.E-7,
(PID.TID 0000.0001)   41 /
(PID.TID 0000.0001)   42
(PID.TID 0000.0001)   43 &PARM03
(PID.TID 0000.0001)   44  nIter0=0,
(PID.TID 0000.0001)   45  nTimeSteps=4,
(PID.TID 0000.0001)   46  deltaTmom= 3600.,
(PID.TID 0000.0001)   47  deltaTtracer= 3600.,
(PID.TID 0000.0001)   48  deltaTClock = 3600.,
(PID.TID 0000.0001)   49  cAdjFreq    = 0.,
(PID.TID 0000.0001)   50  abEps=0.1,
(PID.TID 0000.0001)   51  pChkptFreq  = 31104000.0,
(PID.TID 0000.0001)   52  chkptFreq   = 31104000.0,
(PID.TID 0000.0001)   53  dumpFreq = 3600.,
(PID.TID 0000.0001)   54  dumpInitAndLast = .TRUE.,
(PID.TID 0000.0001)   55  taveFreq    = 2592000.,
(PID.TID 0000.0001)   56  monitorFreq = 1.,
(PID.TID 0000.0001)   57  tauThetaClimRelax=86400.,
(PID.TID 0000.0001)   58  tauSaltClimRelax=0.,
(PID.TID 0000.0001)   59  periodicExternalForcing=.TRUE.,
(PID.TID 0000.0001)   60  externForcingPeriod=2592000.,
(PID.TID 0000.0001)   61  externForcingCycle=31104000.,
(PID.TID 0000.0001)   62 /
(PID.TID 0000.0001)   63
(PID.TID 0000.0001)   64 &PARM04
(PID.TID 0000.0001)   65 usingCartesianGrid=.FALSE.,
(PID.TID 0000.0001)   66 usingSphericalPolarGrid=.TRUE.,
(PID.TID 0000.0001)   67 delX=1*1.E0,
(PID.TID 0000.0001)   68 delY=1*1.E0,
(PID.TID 0000.0001)   69 delZ=14*10, 5*15, 4*20, 2*50, 100, 2*150, 200, 300, 3*400, 2*500,
(PID.TID 0000.0001)   70 xgOrigin=0,
(PID.TID 0000.0001)   71 ygOrigin=-45.,
(PID.TID 0000.0001)   72 /
(PID.TID 0000.0001)   73
(PID.TID 0000.0001)   74 &PARM05
(PID.TID 0000.0001)   75 bathyFile=       '../input/input/bathyneg.bin',
(PID.TID 0000.0001)   76 hydrogThetaFile= '../input/input/loc1_temp_janprof.bin',
(PID.TID 0000.0001)   77 hydrogSaltFile=  '../input/input/salt_uniform.bin',
(PID.TID 0000.0001)   78 zonalWindFile=   '../input/input/loc1_taux_monsurf.bin',
(PID.TID 0000.0001)   79 meridWindFile=   '../input/input/loc1_tauy_monsurf.bin',
(PID.TID 0000.0001)   80 thetaClimFile=   '../input/input/loc1_temp_monsurf.bin',
(PID.TID 0000.0001)   81 saltClimFile=    '',
(PID.TID 0000.0001)   82 surfQFile=       '',
(PID.TID 0000.0001)   83 EmPmRFile=       '',
(PID.TID 0000.0001)   84 /
(PID.TID 0000.0001) // =======================================================
(PID.TID 0000.0001) // Parameter file "data"
(PID.TID 0000.0001) // =======================================================
(PID.TID 0000.0001) >#
(PID.TID 0000.0001) ># ******************************
(PID.TID 0000.0001) ># Model parameters
(PID.TID 0000.0001) ># Continuous equation parameters
(PID.TID 0000.0001) ># ******************************
(PID.TID 0000.0001) >&PARM01
(PID.TID 0000.0001) >tRef= 26.5, 26.1, 26., 25.5, 25.4, 24.9, 24.5, 24.0, 23.7,
(PID.TID 0000.0001) >      23.3, 23.1, 22.8, 22.5, 22.1, 21.6, 20.6, 19.5, 18.4,
(PID.TID 0000.0001) >      17.3, 16.6, 15.5, 14.6, 13.8, 13.1, 11.6, 10.1, 7.7,
(PID.TID 0000.0001) >      5.3, 4.1, 3.7, 3.7, 3.4, 3.0, 2.8, 2.6,
(PID.TID 0000.0001) >sRef= 35*35.00,
(PID.TID 0000.0001) >no_slip_sides=.false.,
(PID.TID 0000.0001) >no_slip_bottom=.TRUE.,
(PID.TID 0000.0001) >viscAz=0.e0,
(PID.TID 0000.0001) >viscAh=0.e0,
(PID.TID 0000.0001) >diffKhT=1.E2,
(PID.TID 0000.0001) >diffKzT=1.E-4,
(PID.TID 0000.0001) >diffKhS=0.D0,
(PID.TID 0000.0001) >diffKzS=0.D0,
(PID.TID 0000.0001) >beta=1.E-11,
(PID.TID 0000.0001) >tAlpha=2.E-4,
(PID.TID 0000.0001) >sBeta =7.4E-4,
(PID.TID 0000.0001) >gravity=9.81,
(PID.TID 0000.0001) >gBaro=9.81,
(PID.TID 0000.0001) >rigidLid=.TRUE.,
(PID.TID 0000.0001) >implicitFreeSurface=.false.,
(PID.TID 0000.0001) >eosType='JMD95Z',
(PID.TID 0000.0001) >saltStepping=.FALSE.,
(PID.TID 0000.0001) >tempStepping=.TRUE.,
(PID.TID 0000.0001) >tempAdvection=.TRUE.,
(PID.TID 0000.0001) >momStepping=.FALSE.,
(PID.TID 0000.0001) >implicitDiffusion=.true.,
(PID.TID 0000.0001) >implicitViscosity=.true.,
(PID.TID 0000.0001) >allowFreezing=.false.,
(PID.TID 0000.0001) >useSingleCpuIO=.TRUE.,
(PID.TID 0000.0001) >useCDscheme=.FALSE.,
(PID.TID 0000.0001) >tempAdvScheme = 3,
(PID.TID 0000.0001) >saltAdvScheme = 3,
(PID.TID 0000.0001) >readBinaryPrec= 64,
(PID.TID 0000.0001) >writeBinaryPrec= 64,
(PID.TID 0000.0001) >/
(PID.TID 0000.0001) >
(PID.TID 0000.0001) ># **************************
(PID.TID 0000.0001) ># Elliptic solver parameters
(PID.TID 0000.0001) ># **************************
(PID.TID 0000.0001) >&PARM02
(PID.TID 0000.0001) >cg2dMaxIters=300,
(PID.TID 0000.0001) >cg2dTargetResidual=1.E-7,
(PID.TID 0000.0001) >/
(PID.TID 0000.0001) >
(PID.TID 0000.0001) ># ************************
(PID.TID 0000.0001) ># Time stepping parameters
(PID.TID 0000.0001) ># ************************
(PID.TID 0000.0001) >&PARM03
(PID.TID 0000.0001) > nIter0=0,
(PID.TID 0000.0001) >#nTimeSteps=86400,
(PID.TID 0000.0001) > nTimeSteps=4,
(PID.TID 0000.0001) > deltaTmom= 3600.,
(PID.TID 0000.0001) > deltaTtracer= 3600.,
(PID.TID 0000.0001) > deltaTClock = 3600.,
(PID.TID 0000.0001) > cAdjFreq    = 0.,
(PID.TID 0000.0001) > abEps=0.1,
(PID.TID 0000.0001) > pChkptFreq  = 31104000.0,
(PID.TID 0000.0001) > chkptFreq   = 31104000.0,
(PID.TID 0000.0001) > dumpFreq = 3600.,
(PID.TID 0000.0001) > dumpInitAndLast = .TRUE.,
(PID.TID 0000.0001) > taveFreq    = 2592000.,
(PID.TID 0000.0001) >#monitorFreq = 2592000.,
(PID.TID 0000.0001) > monitorFreq = 1.,
(PID.TID 0000.0001) > tauThetaClimRelax=86400.,
(PID.TID 0000.0001) > tauSaltClimRelax=0.,
(PID.TID 0000.0001) > periodicExternalForcing=.TRUE.,
(PID.TID 0000.0001) > externForcingPeriod=2592000.,
(PID.TID 0000.0001) > externForcingCycle=31104000.,
(PID.TID 0000.0001) >/
(PID.TID 0000.0001) >
(PID.TID 0000.0001) ># *******************
(PID.TID 0000.0001) ># Gridding parameters
(PID.TID 0000.0001) ># *******************
(PID.TID 0000.0001) >&PARM04
(PID.TID 0000.0001) >usingCartesianGrid=.FALSE.,
(PID.TID 0000.0001) >usingSphericalPolarGrid=.TRUE.,
(PID.TID 0000.0001) >delX=1*1.E0,
(PID.TID 0000.0001) >delY=1*1.E0,
(PID.TID 0000.0001) >delZ=14*10, 5*15, 4*20, 2*50, 100, 2*150, 200, 300, 3*400, 2*500,
(PID.TID 0000.0001) >xgOrigin=0,
(PID.TID 0000.0001) >ygOrigin=-45.,
(PID.TID 0000.0001) >/
(PID.TID 0000.0001) >
(PID.TID 0000.0001) ># **********
(PID.TID 0000.0001) ># Data Files
(PID.TID 0000.0001) ># **********
(PID.TID 0000.0001) >&PARM05
(PID.TID 0000.0001) >bathyFile=       '../input/input/bathyneg.bin',
(PID.TID 0000.0001) >hydrogThetaFile= '../input/input/loc1_temp_janprof.bin',
(PID.TID 0000.0001) >hydrogSaltFile=  '../input/input/salt_uniform.bin',
(PID.TID 0000.0001) >zonalWindFile=   '../input/input/loc1_taux_monsurf.bin',
(PID.TID 0000.0001) >meridWindFile=   '../input/input/loc1_tauy_monsurf.bin',
(PID.TID 0000.0001) >thetaClimFile=   '../input/input/loc1_temp_monsurf.bin',
(PID.TID 0000.0001) >saltClimFile=    '',
(PID.TID 0000.0001) >surfQFile=       '',
(PID.TID 0000.0001) >EmPmRFile=       '',
(PID.TID 0000.0001) >/
(PID.TID 0000.0001) 
(PID.TID 0000.0001)  INI_PARMS ; starts to read PARM01
(PID.TID 0000.0001)  INI_PARMS ; read PARM01 : OK
(PID.TID 0000.0001)  INI_PARMS ; starts to read PARM02
(PID.TID 0000.0001)  INI_PARMS ; read PARM02 : OK
(PID.TID 0000.0001)  INI_PARMS ; starts to read PARM03
(PID.TID 0000.0001)  INI_PARMS ; read PARM03 : OK
(PID.TID 0000.0001)  INI_PARMS ; starts to read PARM04
(PID.TID 0000.0001)  INI_PARMS ; read PARM04 : OK
(PID.TID 0000.0001)  INI_PARMS ; starts to read PARM05
(PID.TID 0000.0001)  INI_PARMS ; read PARM05 : OK
(PID.TID 0000.0001)  INI_PARMS: finished reading file "data"
(PID.TID 0000.0001)  PACKAGES_BOOT: opening data.pkg
(PID.TID 0000.0001)  OPEN_COPY_DATA_FILE: opening file data.pkg
(PID.TID 0000.0001) // =======================================================
(PID.TID 0000.0001) // Removing comments from "data.pkg"
(PID.TID 0000.0001) // =======================================================
(PID.TID 0000.0001)    1  &PACKAGES
(PID.TID 0000.0001)    2  usePTRACERS=.TRUE.
(PID.TID 0000.0001)    3  useGCHEM=.TRUE.,
(PID.TID 0000.0001)    4  useKPP=.TRUE.,
(PID.TID 0000.0001)    5  useMNC=.TRUE.,
(PID.TID 0000.0001)    6  useEXF=.TRUE.,
(PID.TID 0000.0001)    7  useCAL=.TRUE.,
(PID.TID 0000.0001)    8  useDIAGNOSTICS=.TRUE.,
(PID.TID 0000.0001)    9  /
(PID.TID 0000.0001) // =======================================================
(PID.TID 0000.0001) // Parameter file "data.pkg"
(PID.TID 0000.0001) // =======================================================
(PID.TID 0000.0001) ># Packages
(PID.TID 0000.0001) > &PACKAGES
(PID.TID 0000.0001) > usePTRACERS=.TRUE.
(PID.TID 0000.0001) > useGCHEM=.TRUE.,
(PID.TID 0000.0001) > useKPP=.TRUE.,
(PID.TID 0000.0001) > useMNC=.TRUE.,
(PID.TID 0000.0001) > useEXF=.TRUE.,
(PID.TID 0000.0001) > useCAL=.TRUE.,
(PID.TID 0000.0001) > useDIAGNOSTICS=.TRUE.,
(PID.TID 0000.0001) > /
(PID.TID 0000.0001) 
(PID.TID 0000.0001)  PACKAGES_BOOT: finished reading data.pkg
(PID.TID 0000.0001)  PACKAGES_BOOT: On/Off package Summary
 --------  pkgs with a standard "usePKG" On/Off switch in "data.pkg":  --------
 pkg/kpp                  compiled   and   used ( useKPP                   = T )
 pkg/cal                  compiled   and   used ( useCAL                   = T )
 pkg/exf                  compiled   and   used ( useEXF                   = T )
 pkg/sbo                  compiled but not used ( useSBO                   = F )
 pkg/ptracers             compiled   and   used ( usePTRACERS              = T )
 pkg/gchem                compiled   and   used ( useGCHEM                 = T )
 pkg/diagnostics          compiled   and   used ( useDiagnostics           = T )
 pkg/mnc                  compiled   and   used ( useMNC                   = T )
 -------- pkgs without standard "usePKG" On/Off switch in "data.pkg":  --------
 pkg/generic_advdiff      compiled   and   used ( useGAD                   = T )
 pkg/mom_common           compiled but not used ( momStepping              = F )
 pkg/mom_vecinv           compiled but not used ( +vectorInvariantMomentum = F )
 pkg/mom_fluxform         compiled but not used ( & not vectorInvariantMom = F )
 pkg/monitor              compiled   and   used ( monitorFreq > 0.         = T )
 pkg/timeave              compiled   and   used ( taveFreq > 0.            = T )
 pkg/debug                compiled but not used ( debugMode                = F )
 pkg/rw                   compiled   and   used
 pkg/mdsio                compiled   and   used
(PID.TID 0000.0001)  PACKAGES_BOOT: End of package Summary
(PID.TID 0000.0001) 
(PID.TID 0000.0001)  MNC_READPARMS: opening file 'data.mnc'
(PID.TID 0000.0001)  OPEN_COPY_DATA_FILE: opening file data.mnc
(PID.TID 0000.0001) // =======================================================
(PID.TID 0000.0001) // Removing comments from "data.mnc"
(PID.TID 0000.0001) // =======================================================
(PID.TID 0000.0001)    1  &MNC_01
(PID.TID 0000.0001)    2  mnc_use_outdir=.TRUE.,
(PID.TID 0000.0001)    3  mnc_outdir_str='mnc_',
(PID.TID 0000.0001)    4  mnc_outdir_date=.TRUE.,
(PID.TID 0000.0001)    5  monitor_mnc=.FALSE.,
(PID.TID 0000.0001)    6  snapshot_mnc=.TRUE.,
(PID.TID 0000.0001)    7  timeave_mnc=.TRUE.,
(PID.TID 0000.0001)    8  pickup_read_mnc=.FALSE.,
(PID.TID 0000.0001)    9  pickup_write_mnc=.FALSE.,
(PID.TID 0000.0001)   10  /
(PID.TID 0000.0001) // =======================================================
(PID.TID 0000.0001) // Parameter file "data.mnc"
(PID.TID 0000.0001) // =======================================================
(PID.TID 0000.0001) ># Example "data.mnc" file
(PID.TID 0000.0001) ># Lines beginning "#" are comments
(PID.TID 0000.0001) > &MNC_01
(PID.TID 0000.0001) ># mnc_echo_gvtypes=.FALSE.,
(PID.TID 0000.0001) ># mnc_use_indir=.FALSE.,
(PID.TID 0000.0001) > mnc_use_outdir=.TRUE.,
(PID.TID 0000.0001) > mnc_outdir_str='mnc_',
(PID.TID 0000.0001) > mnc_outdir_date=.TRUE.,
(PID.TID 0000.0001) > monitor_mnc=.FALSE.,
(PID.TID 0000.0001) > snapshot_mnc=.TRUE.,
(PID.TID 0000.0001) > timeave_mnc=.TRUE.,
(PID.TID 0000.0001) > pickup_read_mnc=.FALSE.,
(PID.TID 0000.0001) > pickup_write_mnc=.FALSE.,
(PID.TID 0000.0001) > /
(PID.TID 0000.0001) ># Note: Some systems use & as the
(PID.TID 0000.0001) ># namelist terminator. Other systems
(PID.TID 0000.0001) ># use a / character.
(PID.TID 0000.0001) 
(PID.TID 0000.0001)  MNC_READPARMS: finished reading data.mnc
(PID.TID 0000.0001) CAL_READPARMS: opening data.cal
(PID.TID 0000.0001)  OPEN_COPY_DATA_FILE: opening file data.cal
(PID.TID 0000.0001) // =======================================================
(PID.TID 0000.0001) // Removing comments from "data.cal"
(PID.TID 0000.0001) // =======================================================
(PID.TID 0000.0001)    1  &CAL_NML
(PID.TID 0000.0001)    2  TheCalendar='model',
(PID.TID 0000.0001)    3  startDate_1=19920101,
(PID.TID 0000.0001)    4  startDate_2=000000,
(PID.TID 0000.0001)    5  calendarDumps = .TRUE.
(PID.TID 0000.0001)    6  /
(PID.TID 0000.0001) // =======================================================
(PID.TID 0000.0001) // Parameter file "data.cal"
(PID.TID 0000.0001) // =======================================================
(PID.TID 0000.0001) >#
(PID.TID 0000.0001) ># *******************
(PID.TID 0000.0001) ># Calendar Parameters
(PID.TID 0000.0001) ># *******************
(PID.TID 0000.0001) > &CAL_NML
(PID.TID 0000.0001) > TheCalendar='model',
(PID.TID 0000.0001) > startDate_1=19920101,
(PID.TID 0000.0001) > startDate_2=000000,
(PID.TID 0000.0001) > calendarDumps = .TRUE.
(PID.TID 0000.0001) > /
(PID.TID 0000.0001) 
(PID.TID 0000.0001) CAL_READPARMS: finished reading data.cal
(PID.TID 0000.0001) EXF_READPARMS: opening data.exf
(PID.TID 0000.0001)  OPEN_COPY_DATA_FILE: opening file data.exf
(PID.TID 0000.0001) // =======================================================
(PID.TID 0000.0001) // Removing comments from "data.exf"
(PID.TID 0000.0001) // =======================================================
(PID.TID 0000.0001)    1  &EXF_NML_01
(PID.TID 0000.0001)    2  exf_albedo        = 0.15,
(PID.TID 0000.0001)    3  exf_iprec         = 64,
(PID.TID 0000.0001)    4  exf_yftype        = 'RL',
(PID.TID 0000.0001)    5  useExfYearlyFields= .TRUE.,
(PID.TID 0000.0001)    6  twoDigitYear      = .TRUE.,
(PID.TID 0000.0001)    7  useExfCheckRange  = .FALSE.,
(PID.TID 0000.0001)    8  /
(PID.TID 0000.0001)    9  &EXF_NML_02
(PID.TID 0000.0001)   10  /
(PID.TID 0000.0001)   11  &EXF_NML_03
(PID.TID 0000.0001)   12  /
(PID.TID 0000.0001)   13  &EXF_NML_04
(PID.TID 0000.0001)   14  /
(PID.TID 0000.0001)   15  &EXF_NML_OBCS
(PID.TID 0000.0001)   16  /
(PID.TID 0000.0001) // =======================================================
(PID.TID 0000.0001) // Parameter file "data.exf"
(PID.TID 0000.0001) // =======================================================
(PID.TID 0000.0001) ># *********************
(PID.TID 0000.0001) ># External Forcing Data
(PID.TID 0000.0001) ># *********************
(PID.TID 0000.0001) >#
(PID.TID 0000.0001) > &EXF_NML_01
(PID.TID 0000.0001) > exf_albedo        = 0.15,
(PID.TID 0000.0001) > exf_iprec         = 64,
(PID.TID 0000.0001) > exf_yftype        = 'RL',
(PID.TID 0000.0001) > useExfYearlyFields= .TRUE.,
(PID.TID 0000.0001) > twoDigitYear      = .TRUE.,
(PID.TID 0000.0001) > useExfCheckRange  = .FALSE.,
(PID.TID 0000.0001) > /
(PID.TID 0000.0001) >#
(PID.TID 0000.0001) > &EXF_NML_02
(PID.TID 0000.0001) > /
(PID.TID 0000.0001) >#
(PID.TID 0000.0001) > &EXF_NML_03
(PID.TID 0000.0001) > /
(PID.TID 0000.0001) >#
(PID.TID 0000.0001) > &EXF_NML_04
(PID.TID 0000.0001) > /
(PID.TID 0000.0001) >#
(PID.TID 0000.0001) > &EXF_NML_OBCS
(PID.TID 0000.0001) > /
(PID.TID 0000.0001) 
(PID.TID 0000.0001) EXF_READPARMS: reading EXF_NML_01
(PID.TID 0000.0001) EXF_READPARMS: reading EXF_NML_02
(PID.TID 0000.0001) EXF_READPARMS: reading EXF_NML_03
(PID.TID 0000.0001) EXF_READPARMS: finished reading data.exf
(PID.TID 0000.0001)  KPP_INIT: opening data.kpp
(PID.TID 0000.0001)  OPEN_COPY_DATA_FILE: opening file data.kpp
(PID.TID 0000.0001) // =======================================================
(PID.TID 0000.0001) // Removing comments from "data.kpp"
(PID.TID 0000.0001) // =======================================================
(PID.TID 0000.0001)    1  &KPP_PARM01
(PID.TID 0000.0001)    2  KPPmixingMaps   = .FALSE.,
(PID.TID 0000.0001)    3  KPPwriteState   = .TRUE.,
(PID.TID 0000.0001)    4  kpp_dumpFreq    = 2592000.
(PID.TID 0000.0001)    5  kpp_tavefreq    = 2592000.
(PID.TID 0000.0001)    6  Ricr            = 0.3559
(PID.TID 0000.0001)    7  Riinfty         = 0.6998
(PID.TID 0000.0001)    8  /
(PID.TID 0000.0001)    9
(PID.TID 0000.0001) // =======================================================
(PID.TID 0000.0001) // Parameter file "data.kpp"
(PID.TID 0000.0001) // =======================================================
(PID.TID 0000.0001) >#
(PID.TID 0000.0001) ># ***************
(PID.TID 0000.0001) ># Open boundaries
(PID.TID 0000.0001) ># ***************
(PID.TID 0000.0001) > &KPP_PARM01
(PID.TID 0000.0001) > KPPmixingMaps   = .FALSE.,
(PID.TID 0000.0001) > KPPwriteState   = .TRUE.,
(PID.TID 0000.0001) > kpp_dumpFreq    = 2592000.
(PID.TID 0000.0001) > kpp_tavefreq    = 2592000.
(PID.TID 0000.0001) > Ricr            = 0.3559
(PID.TID 0000.0001) > Riinfty         = 0.6998
(PID.TID 0000.0001) > /
(PID.TID 0000.0001) >
(PID.TID 0000.0001) 
(PID.TID 0000.0001)  KPP_INIT: finished reading data.kpp
(PID.TID 0000.0001)  PTRACERS_READPARMS: opening data.ptracers
(PID.TID 0000.0001)  OPEN_COPY_DATA_FILE: opening file data.ptracers
(PID.TID 0000.0001) // =======================================================
(PID.TID 0000.0001) // Removing comments from "data.ptracers"
(PID.TID 0000.0001) // =======================================================
(PID.TID 0000.0001)    1  &PTRACERS_PARM01
(PID.TID 0000.0001)    2  PTRACERS_numInUse=233,
(PID.TID 0000.0001)    3  PTRACERS_Iter0= 0,
(PID.TID 0000.0001)    4  PTRACERS_advScheme=233*33,
(PID.TID 0000.0001)    5  PTRACERS_diffKh=233*0.E3,
(PID.TID 0000.0001)    6  PTRACERS_diffKr=233*1.E-5,
(PID.TID 0000.0001)    7  PTRACERS_useGMRedi=233*.FALSE.,
(PID.TID 0000.0001)    8  PTRACERS_useKPP=233*.TRUE.,
(PID.TID 0000.0001)    9  PTRACERS_names(1)= 'DIC',
(PID.TID 0000.0001)   10  PTRACERS_names(2)= 'NH4',
(PID.TID 0000.0001)   11  PTRACERS_names(3)= 'NO2',
(PID.TID 0000.0001)   12  PTRACERS_names(4)= 'NO3',
(PID.TID 0000.0001)   13  PTRACERS_names(5)= 'PO4',
(PID.TID 0000.0001)   14  PTRACERS_names(6)= 'SiO2',
(PID.TID 0000.0001)   15  PTRACERS_names(7)= 'FeT',
(PID.TID 0000.0001)   16  PTRACERS_names(8)= 'DOC',
(PID.TID 0000.0001)   17  PTRACERS_names(9)= 'DON',
(PID.TID 0000.0001)   18  PTRACERS_names(10)= 'DOP',
(PID.TID 0000.0001)   19  PTRACERS_names(11)= 'DOFe',
(PID.TID 0000.0001)   20  PTRACERS_names(12)= 'POC',
(PID.TID 0000.0001)   21  PTRACERS_names(13)= 'PON',
(PID.TID 0000.0001)   22  PTRACERS_names(14)= 'POP',
(PID.TID 0000.0001)   23  PTRACERS_names(15)= 'POSi',
(PID.TID 0000.0001)   24  PTRACERS_names(16)= 'POFe',
(PID.TID 0000.0001)   25  PTRACERS_names(17)= 'PIC',
(PID.TID 0000.0001)   26  PTRACERS_names(18)= 'ALK',
(PID.TID 0000.0001)   27  PTRACERS_names(19)= 'O2',
(PID.TID 0000.0001)   28  PTRACERS_names(20)= 'c01',
(PID.TID 0000.0001)   29  PTRACERS_names(21)= 'c02',
(PID.TID 0000.0001)   30  PTRACERS_names(22)= 'c03',
(PID.TID 0000.0001)   31  PTRACERS_names(23)= 'c04',
(PID.TID 0000.0001)   32  PTRACERS_names(24)= 'c05',
(PID.TID 0000.0001)   33  PTRACERS_names(25)= 'c06',
(PID.TID 0000.0001)   34  PTRACERS_names(26)= 'c07',
(PID.TID 0000.0001)   35  PTRACERS_names(27)= 'c08',
(PID.TID 0000.0001)   36  PTRACERS_names(28)= 'c09',
(PID.TID 0000.0001)   37  PTRACERS_names(29)= 'c10',
(PID.TID 0000.0001)   38  PTRACERS_names(30)= 'c11',
(PID.TID 0000.0001)   39  PTRACERS_names(31)= 'c12',
(PID.TID 0000.0001)   40  PTRACERS_names(32)= 'c13',
(PID.TID 0000.0001)   41  PTRACERS_names(33)= 'c14',
(PID.TID 0000.0001)   42  PTRACERS_names(34)= 'c15',
(PID.TID 0000.0001)   43  PTRACERS_names(35)= 'c16',
(PID.TID 0000.0001)   44  PTRACERS_names(36)= 'c17',
(PID.TID 0000.0001)   45  PTRACERS_names(37)= 'c18',
(PID.TID 0000.0001)   46  PTRACERS_names(38)= 'c19',
(PID.TID 0000.0001)   47  PTRACERS_names(39)= 'c20',
(PID.TID 0000.0001)   48  PTRACERS_names(40)= 'c21',
(PID.TID 0000.0001)   49  PTRACERS_names(41)= 'c22',
(PID.TID 0000.0001)   50  PTRACERS_names(42)= 'c23',
(PID.TID 0000.0001)   51  PTRACERS_names(43)= 'c24',
(PID.TID 0000.0001)   52  PTRACERS_names(44)= 'c25',
(PID.TID 0000.0001)   53  PTRACERS_names(45)= 'c26',
(PID.TID 0000.0001)   54  PTRACERS_names(46)= 'c27',
(PID.TID 0000.0001)   55  PTRACERS_names(47)= 'c28',
(PID.TID 0000.0001)   56  PTRACERS_names(48)= 'c29',
(PID.TID 0000.0001)   57  PTRACERS_names(49)= 'c30',
(PID.TID 0000.0001)   58  PTRACERS_names(50)= 'c31',
(PID.TID 0000.0001)   59  PTRACERS_names(51)= 'c32',
(PID.TID 0000.0001)   60  PTRACERS_names(52)= 'c33',
(PID.TID 0000.0001)   61  PTRACERS_names(53)= 'c34',
(PID.TID 0000.0001)   62  PTRACERS_names(54)= 'c35',
(PID.TID 0000.0001)   63  PTRACERS_names(55)= 'c36',
(PID.TID 0000.0001)   64  PTRACERS_names(56)= 'c37',
(PID.TID 0000.0001)   65  PTRACERS_names(57)= 'c38',
(PID.TID 0000.0001)   66  PTRACERS_names(58)= 'n01',
(PID.TID 0000.0001)   67  PTRACERS_names(59)= 'n02',
(PID.TID 0000.0001)   68  PTRACERS_names(60)= 'n03',
(PID.TID 0000.0001)   69  PTRACERS_names(61)= 'n04',
(PID.TID 0000.0001)   70  PTRACERS_names(62)= 'n05',
(PID.TID 0000.0001)   71  PTRACERS_names(63)= 'n06',
(PID.TID 0000.0001)   72  PTRACERS_names(64)= 'n07',
(PID.TID 0000.0001)   73  PTRACERS_names(65)= 'n08',
(PID.TID 0000.0001)   74  PTRACERS_names(66)= 'n09',
(PID.TID 0000.0001)   75  PTRACERS_names(67)= 'n10',
(PID.TID 0000.0001)   76  PTRACERS_names(68)= 'n11',
(PID.TID 0000.0001)   77  PTRACERS_names(69)= 'n12',
(PID.TID 0000.0001)   78  PTRACERS_names(70)= 'n13',
(PID.TID 0000.0001)   79  PTRACERS_names(71)= 'n14',
(PID.TID 0000.0001)   80  PTRACERS_names(72)= 'n15',
(PID.TID 0000.0001)   81  PTRACERS_names(73)= 'n16',
(PID.TID 0000.0001)   82  PTRACERS_names(74)= 'n17',
(PID.TID 0000.0001)   83  PTRACERS_names(75)= 'n18',
(PID.TID 0000.0001)   84  PTRACERS_names(76)= 'n19',
(PID.TID 0000.0001)   85  PTRACERS_names(77)= 'n20',
(PID.TID 0000.0001)   86  PTRACERS_names(78)= 'n21',
(PID.TID 0000.0001)   87  PTRACERS_names(79)= 'n22',
(PID.TID 0000.0001)   88  PTRACERS_names(80)= 'n23',
(PID.TID 0000.0001)   89  PTRACERS_names(81)= 'n24',
(PID.TID 0000.0001)   90  PTRACERS_names(82)= 'n25',
(PID.TID 0000.0001)   91  PTRACERS_names(83)= 'n26',
(PID.TID 0000.0001)   92  PTRACERS_names(84)= 'n27',
(PID.TID 0000.0001)   93  PTRACERS_names(85)= 'n28',
(PID.TID 0000.0001)   94  PTRACERS_names(86)= 'n29',
(PID.TID 0000.0001)   95  PTRACERS_names(87)= 'n30',
(PID.TID 0000.0001)   96  PTRACERS_names(88)= 'n31',
(PID.TID 0000.0001)   97  PTRACERS_names(89)= 'n32',
(PID.TID 0000.0001)   98  PTRACERS_names(90)= 'n33',
(PID.TID 0000.0001)   99  PTRACERS_names(91)= 'n34',
(PID.TID 0000.0001)  100  PTRACERS_names(92)= 'n35',
(PID.TID 0000.0001)  101  PTRACERS_names(93)= 'n36',
(PID.TID 0000.0001)  102  PTRACERS_names(94)= 'n37',
(PID.TID 0000.0001)  103  PTRACERS_names(95)= 'n38',
(PID.TID 0000.0001)  104  PTRACERS_names(96)= 'p01',
(PID.TID 0000.0001)  105  PTRACERS_names(97)= 'p02',
(PID.TID 0000.0001)  106  PTRACERS_names(98)= 'p03',
(PID.TID 0000.0001)  107  PTRACERS_names(99)= 'p04',
(PID.TID 0000.0001)  108  PTRACERS_names(100)= 'p05',
(PID.TID 0000.0001)  109  PTRACERS_names(101)= 'p06',
(PID.TID 0000.0001)  110  PTRACERS_names(102)= 'p07',
(PID.TID 0000.0001)  111  PTRACERS_names(103)= 'p08',
(PID.TID 0000.0001)  112  PTRACERS_names(104)= 'p09',
(PID.TID 0000.0001)  113  PTRACERS_names(105)= 'p10',
(PID.TID 0000.0001)  114  PTRACERS_names(106)= 'p11',
(PID.TID 0000.0001)  115  PTRACERS_names(107)= 'p12',
(PID.TID 0000.0001)  116  PTRACERS_names(108)= 'p13',
(PID.TID 0000.0001)  117  PTRACERS_names(109)= 'p14',
(PID.TID 0000.0001)  118  PTRACERS_names(110)= 'p15',
(PID.TID 0000.0001)  119  PTRACERS_names(111)= 'p16',
(PID.TID 0000.0001)  120  PTRACERS_names(112)= 'p17',
(PID.TID 0000.0001)  121  PTRACERS_names(113)= 'p18',
(PID.TID 0000.0001)  122  PTRACERS_names(114)= 'p19',
(PID.TID 0000.0001)  123  PTRACERS_names(115)= 'p20',
(PID.TID 0000.0001)  124  PTRACERS_names(116)= 'p21',
(PID.TID 0000.0001)  125  PTRACERS_names(117)= 'p22',
(PID.TID 0000.0001)  126  PTRACERS_names(118)= 'p23',
(PID.TID 0000.0001)  127  PTRACERS_names(119)= 'p24',
(PID.TID 0000.0001)  128  PTRACERS_names(120)= 'p25',
(PID.TID 0000.0001)  129  PTRACERS_names(121)= 'p26',
(PID.TID 0000.0001)  130  PTRACERS_names(122)= 'p27',
(PID.TID 0000.0001)  131  PTRACERS_names(123)= 'p28',
(PID.TID 0000.0001)  132  PTRACERS_names(124)= 'p29',
(PID.TID 0000.0001)  133  PTRACERS_names(125)= 'p30',
(PID.TID 0000.0001)  134  PTRACERS_names(126)= 'p31',
(PID.TID 0000.0001)  135  PTRACERS_names(127)= 'p32',
(PID.TID 0000.0001)  136  PTRACERS_names(128)= 'p33',
(PID.TID 0000.0001)  137  PTRACERS_names(129)= 'p34',
(PID.TID 0000.0001)  138  PTRACERS_names(130)= 'p35',
(PID.TID 0000.0001)  139  PTRACERS_names(131)= 'p36',
(PID.TID 0000.0001)  140  PTRACERS_names(132)= 'p37',
(PID.TID 0000.0001)  141  PTRACERS_names(133)= 'p38',
(PID.TID 0000.0001)  142  PTRACERS_names(134)= 'fe01',
(PID.TID 0000.0001)  143  PTRACERS_names(135)= 'fe02',
(PID.TID 0000.0001)  144  PTRACERS_names(136)= 'fe03',
(PID.TID 0000.0001)  145  PTRACERS_names(137)= 'fe04',
(PID.TID 0000.0001)  146  PTRACERS_names(138)= 'fe05',
(PID.TID 0000.0001)  147  PTRACERS_names(139)= 'fe06',
(PID.TID 0000.0001)  148  PTRACERS_names(140)= 'fe07',
(PID.TID 0000.0001)  149  PTRACERS_names(141)= 'fe08',
(PID.TID 0000.0001)  150  PTRACERS_names(142)= 'fe09',
(PID.TID 0000.0001)  151  PTRACERS_names(143)= 'fe10',
(PID.TID 0000.0001)  152  PTRACERS_names(144)= 'fe11',
(PID.TID 0000.0001)  153  PTRACERS_names(145)= 'fe12',
(PID.TID 0000.0001)  154  PTRACERS_names(146)= 'fe13',
(PID.TID 0000.0001)  155  PTRACERS_names(147)= 'fe14',
(PID.TID 0000.0001)  156  PTRACERS_names(148)= 'fe15',
(PID.TID 0000.0001)  157  PTRACERS_names(149)= 'fe16',
(PID.TID 0000.0001)  158  PTRACERS_names(150)= 'fe17',
(PID.TID 0000.0001)  159  PTRACERS_names(151)= 'fe18',
(PID.TID 0000.0001)  160  PTRACERS_names(152)= 'fe19',
(PID.TID 0000.0001)  161  PTRACERS_names(153)= 'fe20',
(PID.TID 0000.0001)  162  PTRACERS_names(154)= 'fe21',
(PID.TID 0000.0001)  163  PTRACERS_names(155)= 'fe22',
(PID.TID 0000.0001)  164  PTRACERS_names(156)= 'fe23',
(PID.TID 0000.0001)  165  PTRACERS_names(157)= 'fe24',
(PID.TID 0000.0001)  166  PTRACERS_names(158)= 'fe25',
(PID.TID 0000.0001)  167  PTRACERS_names(159)= 'fe26',
(PID.TID 0000.0001)  168  PTRACERS_names(160)= 'fe27',
(PID.TID 0000.0001)  169  PTRACERS_names(161)= 'fe28',
(PID.TID 0000.0001)  170  PTRACERS_names(162)= 'fe29',
(PID.TID 0000.0001)  171  PTRACERS_names(163)= 'fe30',
(PID.TID 0000.0001)  172  PTRACERS_names(164)= 'fe31',
(PID.TID 0000.0001)  173  PTRACERS_names(165)= 'fe32',
(PID.TID 0000.0001)  174  PTRACERS_names(166)= 'fe33',
(PID.TID 0000.0001)  175  PTRACERS_names(167)= 'fe34',
(PID.TID 0000.0001)  176  PTRACERS_names(168)= 'fe35',
(PID.TID 0000.0001)  177  PTRACERS_names(169)= 'fe36',
(PID.TID 0000.0001)  178  PTRACERS_names(170)= 'fe37',
(PID.TID 0000.0001)  179  PTRACERS_names(171)= 'fe38',
(PID.TID 0000.0001)  180  PTRACERS_names(172)= 'si01',
(PID.TID 0000.0001)  181  PTRACERS_names(173)= 'si02',
(PID.TID 0000.0001)  182  PTRACERS_names(174)= 'si03',
(PID.TID 0000.0001)  183  PTRACERS_names(175)= 'si04',
(PID.TID 0000.0001)  184  PTRACERS_names(176)= 'si05',
(PID.TID 0000.0001)  185  PTRACERS_names(177)= 'si06',
(PID.TID 0000.0001)  186  PTRACERS_names(178)= 'si07',
(PID.TID 0000.0001)  187  PTRACERS_names(179)= 'si08',
(PID.TID 0000.0001)  188  PTRACERS_names(180)= 'si09',
(PID.TID 0000.0001)  189  PTRACERS_names(181)= 'si10',
(PID.TID 0000.0001)  190  PTRACERS_names(182)= 'si11',
(PID.TID 0000.0001)  191  PTRACERS_names(183)= 'si12',
(PID.TID 0000.0001)  192  PTRACERS_names(184)= 'si13',
(PID.TID 0000.0001)  193  PTRACERS_names(185)= 'si14',
(PID.TID 0000.0001)  194  PTRACERS_names(186)= 'si15',
(PID.TID 0000.0001)  195  PTRACERS_names(187)= 'si16',
(PID.TID 0000.0001)  196  PTRACERS_names(188)= 'si17',
(PID.TID 0000.0001)  197  PTRACERS_names(189)= 'si18',
(PID.TID 0000.0001)  198  PTRACERS_names(190)= 'si19',
(PID.TID 0000.0001)  199  PTRACERS_names(191)= 'si20',
(PID.TID 0000.0001)  200  PTRACERS_names(192)= 'si21',
(PID.TID 0000.0001)  201  PTRACERS_names(193)= 'si22',
(PID.TID 0000.0001)  202  PTRACERS_names(194)= 'si23',
(PID.TID 0000.0001)  203  PTRACERS_names(195)= 'si24',
(PID.TID 0000.0001)  204  PTRACERS_names(196)= 'si25',
(PID.TID 0000.0001)  205  PTRACERS_names(197)= 'si26',
(PID.TID 0000.0001)  206  PTRACERS_names(198)= 'si27',
(PID.TID 0000.0001)  207  PTRACERS_names(199)= 'si28',
(PID.TID 0000.0001)  208  PTRACERS_names(200)= 'si29',
(PID.TID 0000.0001)  209  PTRACERS_names(201)= 'si30',
(PID.TID 0000.0001)  210  PTRACERS_names(202)= 'si31',
(PID.TID 0000.0001)  211  PTRACERS_names(203)= 'si32',
(PID.TID 0000.0001)  212  PTRACERS_names(204)= 'si33',
(PID.TID 0000.0001)  213  PTRACERS_names(205)= 'si34',
(PID.TID 0000.0001)  214  PTRACERS_names(206)= 'si35',
(PID.TID 0000.0001)  215  PTRACERS_names(207)= 'si36',
(PID.TID 0000.0001)  216  PTRACERS_names(208)= 'si37',
(PID.TID 0000.0001)  217  PTRACERS_names(209)= 'si38',
(PID.TID 0000.0001)  218  PTRACERS_names(210)= 'Chl01',
(PID.TID 0000.0001)  219  PTRACERS_names(211)= 'Chl02',
(PID.TID 0000.0001)  220  PTRACERS_names(212)= 'Chl03',
(PID.TID 0000.0001)  221  PTRACERS_names(213)= 'Chl04',
(PID.TID 0000.0001)  222  PTRACERS_names(214)= 'Chl05',
(PID.TID 0000.0001)  223  PTRACERS_names(215)= 'Chl06',
(PID.TID 0000.0001)  224  PTRACERS_names(216)= 'Chl07',
(PID.TID 0000.0001)  225  PTRACERS_names(217)= 'Chl08',
(PID.TID 0000.0001)  226  PTRACERS_names(218)= 'Chl09',
(PID.TID 0000.0001)  227  PTRACERS_names(219)= 'Chl10',
(PID.TID 0000.0001)  228  PTRACERS_names(220)= 'Chl11',
(PID.TID 0000.0001)  229  PTRACERS_names(221)= 'Chl12',
(PID.TID 0000.0001)  230  PTRACERS_names(222)= 'Chl13',
(PID.TID 0000.0001)  231  PTRACERS_names(223)= 'Chl14',
(PID.TID 0000.0001)  232  PTRACERS_names(224)= 'Chl15',
(PID.TID 0000.0001)  233  PTRACERS_names(225)= 'Chl16',
(PID.TID 0000.0001)  234  PTRACERS_names(226)= 'Chl17',
(PID.TID 0000.0001)  235  PTRACERS_names(227)= 'Chl18',
(PID.TID 0000.0001)  236  PTRACERS_names(228)= 'Chl19',
(PID.TID 0000.0001)  237  PTRACERS_names(229)= 'Chl20',
(PID.TID 0000.0001)  238  PTRACERS_names(230)= 'Chl21',
(PID.TID 0000.0001)  239  PTRACERS_names(231)= 'Chl22',
(PID.TID 0000.0001)  240  PTRACERS_names(232)= 'Chl23',
(PID.TID 0000.0001)  241  PTRACERS_names(233)= 'Chl24',
(PID.TID 0000.0001)  242  PTRACERS_units(1)='mmol C/m^3',
(PID.TID 0000.0001)  243  PTRACERS_units(2)='mmol N/m^3',
(PID.TID 0000.0001)  244  PTRACERS_units(3)='mmol N/m^3',
(PID.TID 0000.0001)  245  PTRACERS_units(4)='mmol N/m^3',
(PID.TID 0000.0001)  246  PTRACERS_units(5)='mmol P/m^3',
(PID.TID 0000.0001)  247  PTRACERS_units(6)='mmol Si/m^3',
(PID.TID 0000.0001)  248  PTRACERS_units(7)='mmol Fe/m^3',
(PID.TID 0000.0001)  249  PTRACERS_units(8)='mmol C/m^3',
(PID.TID 0000.0001)  250  PTRACERS_units(9)='mmol N/m^3',
(PID.TID 0000.0001)  251  PTRACERS_units(10)='mmol P/m^3',
(PID.TID 0000.0001)  252  PTRACERS_units(11)='mmol Fe/m^3',
(PID.TID 0000.0001)  253  PTRACERS_units(12)='mmol C/m^3',
(PID.TID 0000.0001)  254  PTRACERS_units(13)='mmol N/m^3',
(PID.TID 0000.0001)  255  PTRACERS_units(14)='mmol P/m^3',
(PID.TID 0000.0001)  256  PTRACERS_units(15)='mmol Si/m^3',
(PID.TID 0000.0001)  257  PTRACERS_units(16)='mmol Fe/m^3',
(PID.TID 0000.0001)  258  PTRACERS_units(17)='mmol C/m^3',
(PID.TID 0000.0001)  259  PTRACERS_units(18)='mmol eq/m^3',
(PID.TID 0000.0001)  260  PTRACERS_units(19)='mmol O/m^3',
(PID.TID 0000.0001)  261  PTRACERS_units(20:57)=38*'mmol C/m^3',
(PID.TID 0000.0001)  262  PTRACERS_units(58:95)=38*'mmol N/m^3',
(PID.TID 0000.0001)  263  PTRACERS_units(96:133)=38*'mmol P/m^3',
(PID.TID 0000.0001)  264  PTRACERS_units(134:171)=38*'mmol Fe/m^3',
(PID.TID 0000.0001)  265  PTRACERS_units(172:209)=38*'mmol Si/m^3',
(PID.TID 0000.0001)  266  PTRACERS_units(210:233)=24*'mg Chl a/m^3',
(PID.TID 0000.0001)  267  PTRACERS_initialFile(1)= '../input/input/loc1_glodap_tco2_ann-3d.bin',
(PID.TID 0000.0001)  268  PTRACERS_initialFile(2)= '../input/input/loc1_nh4_y2000.data',
(PID.TID 0000.0001)  269  PTRACERS_initialFile(3)= '../input/input/loc1_no2_y2000.data',
(PID.TID 0000.0001)  270  PTRACERS_initialFile(4)= '../input/input/loc1_lev01_nitrate_ann-3d.bin',
(PID.TID 0000.0001)  271  PTRACERS_initialFile(5)= '../input/input/loc1_lev01_phosphate_ann-3d.bin',
(PID.TID 0000.0001)  272  PTRACERS_initialFile(6)= '../input/input/loc1_lev01_silicate_ann-3d.bin ',
(PID.TID 0000.0001)  273  PTRACERS_initialFile(7)= '../input/input/loc1_fet_y2000.data',
(PID.TID 0000.0001)  274  PTRACERS_initialFile(8)= '../input/input/loc1_doc_y2000.data',
(PID.TID 0000.0001)  275  PTRACERS_initialFile(9)= '../input/input/loc1_don_y2000.data',
(PID.TID 0000.0001)  276  PTRACERS_initialFile(10)='../input/input/loc1_dop_y2000.data',
(PID.TID 0000.0001)  277  PTRACERS_initialFile(11)='../input/input/loc1_dofe_y2000.data',
(PID.TID 0000.0001)  278  PTRACERS_initialFile(12)='../input/input/loc1_poc_y2000.data',
(PID.TID 0000.0001)  279  PTRACERS_initialFile(13)='../input/input/loc1_pon_y2000.data',
(PID.TID 0000.0001)  280  PTRACERS_initialFile(14)='../input/input/loc1_pop_y2000.data',
(PID.TID 0000.0001)  281  PTRACERS_initialFile(15)='../input/input/loc1_posi_y2000.data',
(PID.TID 0000.0001)  282  PTRACERS_initialFile(16)='../input/input/loc1_pofe_y2000.data',
(PID.TID 0000.0001)  283  PTRACERS_initialFile(17)='../input/input/loc1_pic_y2000.data',
(PID.TID 0000.0001)  284  PTRACERS_initialFile(18)='../input/input/loc1_glodap_alk_ann-3d.bin',
(PID.TID 0000.0001)  285  PTRACERS_initialFile(19)='../input/input/loc1_lev01_oxygen_ann-3d.bin',
(PID.TID 0000.0001)  286  PTRACERS_initialFile(20:57)=38*'../input/input/loc1_phy78_x120_lev01.bin',
(PID.TID 0000.0001)  287  PTRACERS_initialFile(58:61)=4*'../input/input/loc1_phy78_x16_lev01.bin',
(PID.TID 0000.0001)  288  PTRACERS_initialFile(62)=     '../input/input/loc1_phy78_x40_lev01.bin',
(PID.TID 0000.0001)  289  PTRACERS_initialFile(63:64)=2*'../input/input/loc1_phy78_x16_lev01.bin',
(PID.TID 0000.0001)  290  PTRACERS_initialFile(65)=     '../input/input/loc1_phy78_x40_lev01.bin',
(PID.TID 0000.0001)  291  PTRACERS_initialFile(66:67)=2*'../input/input/loc1_phy78_x16_lev01.bin',
(PID.TID 0000.0001)  292  PTRACERS_initialFile(68)=     '../input/input/loc1_phy78_x40_lev01.bin',
(PID.TID 0000.0001)  293  PTRACERS_initialFile(69:70)=2*'../input/input/loc1_phy78_x16_lev01.bin',
(PID.TID 0000.0001)  294  PTRACERS_initialFile(71)=     '../input/input/loc1_phy78_x40_lev01.bin',
(PID.TID 0000.0001)  295  PTRACERS_initialFile(72:73)=2*'../input/input/loc1_phy78_x16_lev01.bin',
(PID.TID 0000.0001)  296  PTRACERS_initialFile(74)=     '../input/input/loc1_phy78_x40_lev01.bin',
(PID.TID 0000.0001)  297  PTRACERS_initialFile(75:81)=7*'../input/input/loc1_phy78_x16_lev01.bin',
(PID.TID 0000.0001)  298  PTRACERS_initialFile(82:95)=14*'../input/input/loc1_phy78_x16_lev01.bin',
(PID.TID 0000.0001)  299  PTRACERS_initialFile(96:133)=38*'../input/input/loc1_phy78_lev01.bin',
(PID.TID 0000.0001)  300  PTRACERS_initialFile(134:137)=4*'../input/input/loc1_phy78_x0.001_lev01.bin',
(PID.TID 0000.0001)  301  PTRACERS_initialFile(138)=     '../input/input/loc1_phy78_x0.004_lev01.bin',
(PID.TID 0000.0001)  302  PTRACERS_initialFile(139:140)=2*'../input/input/loc1_phy78_x0.001_lev01.bin',
(PID.TID 0000.0001)  303  PTRACERS_initialFile(141)=     '../input/input/loc1_phy78_x0.004_lev01.bin',
(PID.TID 0000.0001)  304  PTRACERS_initialFile(142:143)=2*'../input/input/loc1_phy78_x0.001_lev01.bin',
(PID.TID 0000.0001)  305  PTRACERS_initialFile(144)=     '../input/input/loc1_phy78_x0.004_lev01.bin',
(PID.TID 0000.0001)  306  PTRACERS_initialFile(145:146)=2*'../input/input/loc1_phy78_x0.001_lev01.bin',
(PID.TID 0000.0001)  307  PTRACERS_initialFile(147)=     '../input/input/loc1_phy78_x0.004_lev01.bin',
(PID.TID 0000.0001)  308  PTRACERS_initialFile(148:149)=2*'../input/input/loc1_phy78_x0.001_lev01.bin',
(PID.TID 0000.0001)  309  PTRACERS_initialFile(150)=     '../input/input/loc1_phy78_x0.004_lev01.bin',
(PID.TID 0000.0001)  310  PTRACERS_initialFile(151:157)=7*'../input/input/loc1_phy78_x0.001_lev01.bin',
(PID.TID 0000.0001)  311  PTRACERS_initialFile(158:171)=14*'../input/input/loc1_phy78_x0.001_lev01.bin',
(PID.TID 0000.0001)  312  PTRACERS_initialFile(172:177)=6*' ',
(PID.TID 0000.0001)  313  PTRACERS_initialFile(178)=      '../input/input/loc1_phy78_x16_lev01.bin',
(PID.TID 0000.0001)  314  PTRACERS_initialFile(179:180)=2*' ',
(PID.TID 0000.0001)  315  PTRACERS_initialFile(181)=      '../input/input/loc1_phy78_x16_lev01.bin',
(PID.TID 0000.0001)  316  PTRACERS_initialFile(182:183)=2*' ',
(PID.TID 0000.0001)  317  PTRACERS_initialFile(184)=      '../input/input/loc1_phy78_x16_lev01.bin',
(PID.TID 0000.0001)  318  PTRACERS_initialFile(185:186)=2*' ',
(PID.TID 0000.0001)  319  PTRACERS_initialFile(187)=      '../input/input/loc1_phy78_x16_lev01.bin',
(PID.TID 0000.0001)  320  PTRACERS_initialFile(188:189)=2*' ',
(PID.TID 0000.0001)  321  PTRACERS_initialFile(190)=      '../input/input/loc1_phy78_x16_lev01.bin',
(PID.TID 0000.0001)  322  PTRACERS_initialFile(191)=      ' ',
(PID.TID 0000.0001)  323  PTRACERS_initialFile(192:195)=4*'../input/input/loc1_phy78_x16_lev01.bin',
(PID.TID 0000.0001)  324  PTRACERS_initialFile(196:209)=14*' ',
(PID.TID 0000.0001)  325  PTRACERS_initialFile(210:233)=24*' ',
(PID.TID 0000.0001)  326  /
(PID.TID 0000.0001) // =======================================================
(PID.TID 0000.0001) // Parameter file "data.ptracers"
(PID.TID 0000.0001) // =======================================================
(PID.TID 0000.0001) > &PTRACERS_PARM01
(PID.TID 0000.0001) > PTRACERS_numInUse=233,
(PID.TID 0000.0001) > PTRACERS_Iter0= 0,
(PID.TID 0000.0001) >#
(PID.TID 0000.0001) > PTRACERS_advScheme=233*33,
(PID.TID 0000.0001) > PTRACERS_diffKh=233*0.E3,
(PID.TID 0000.0001) > PTRACERS_diffKr=233*1.E-5,
(PID.TID 0000.0001) > PTRACERS_useGMRedi=233*.FALSE.,
(PID.TID 0000.0001) > PTRACERS_useKPP=233*.TRUE.,
(PID.TID 0000.0001) >#
(PID.TID 0000.0001) > PTRACERS_names(1)= 'DIC',
(PID.TID 0000.0001) > PTRACERS_names(2)= 'NH4',
(PID.TID 0000.0001) > PTRACERS_names(3)= 'NO2',
(PID.TID 0000.0001) > PTRACERS_names(4)= 'NO3',
(PID.TID 0000.0001) > PTRACERS_names(5)= 'PO4',
(PID.TID 0000.0001) > PTRACERS_names(6)= 'SiO2',
(PID.TID 0000.0001) > PTRACERS_names(7)= 'FeT',
(PID.TID 0000.0001) > PTRACERS_names(8)= 'DOC',
(PID.TID 0000.0001) > PTRACERS_names(9)= 'DON',
(PID.TID 0000.0001) > PTRACERS_names(10)= 'DOP',
(PID.TID 0000.0001) > PTRACERS_names(11)= 'DOFe',
(PID.TID 0000.0001) > PTRACERS_names(12)= 'POC',
(PID.TID 0000.0001) > PTRACERS_names(13)= 'PON',
(PID.TID 0000.0001) > PTRACERS_names(14)= 'POP',
(PID.TID 0000.0001) > PTRACERS_names(15)= 'POSi',
(PID.TID 0000.0001) > PTRACERS_names(16)= 'POFe',
(PID.TID 0000.0001) > PTRACERS_names(17)= 'PIC',
(PID.TID 0000.0001) > PTRACERS_names(18)= 'ALK',
(PID.TID 0000.0001) > PTRACERS_names(19)= 'O2',
(PID.TID 0000.0001) > PTRACERS_names(20)= 'c01',
(PID.TID 0000.0001) > PTRACERS_names(21)= 'c02',
(PID.TID 0000.0001) > PTRACERS_names(22)= 'c03',
(PID.TID 0000.0001) > PTRACERS_names(23)= 'c04',
(PID.TID 0000.0001) > PTRACERS_names(24)= 'c05',
(PID.TID 0000.0001) > PTRACERS_names(25)= 'c06',
(PID.TID 0000.0001) > PTRACERS_names(26)= 'c07',
(PID.TID 0000.0001) > PTRACERS_names(27)= 'c08',
(PID.TID 0000.0001) > PTRACERS_names(28)= 'c09',
(PID.TID 0000.0001) > PTRACERS_names(29)= 'c10',
(PID.TID 0000.0001) > PTRACERS_names(30)= 'c11',
(PID.TID 0000.0001) > PTRACERS_names(31)= 'c12',
(PID.TID 0000.0001) > PTRACERS_names(32)= 'c13',
(PID.TID 0000.0001) > PTRACERS_names(33)= 'c14',
(PID.TID 0000.0001) > PTRACERS_names(34)= 'c15',
(PID.TID 0000.0001) > PTRACERS_names(35)= 'c16',
(PID.TID 0000.0001) > PTRACERS_names(36)= 'c17',
(PID.TID 0000.0001) > PTRACERS_names(37)= 'c18',
(PID.TID 0000.0001) > PTRACERS_names(38)= 'c19',
(PID.TID 0000.0001) > PTRACERS_names(39)= 'c20',
(PID.TID 0000.0001) > PTRACERS_names(40)= 'c21',
(PID.TID 0000.0001) > PTRACERS_names(41)= 'c22',
(PID.TID 0000.0001) > PTRACERS_names(42)= 'c23',
(PID.TID 0000.0001) > PTRACERS_names(43)= 'c24',
(PID.TID 0000.0001) > PTRACERS_names(44)= 'c25',
(PID.TID 0000.0001) > PTRACERS_names(45)= 'c26',
(PID.TID 0000.0001) > PTRACERS_names(46)= 'c27',
(PID.TID 0000.0001) > PTRACERS_names(47)= 'c28',
(PID.TID 0000.0001) > PTRACERS_names(48)= 'c29',
(PID.TID 0000.0001) > PTRACERS_names(49)= 'c30',
(PID.TID 0000.0001) > PTRACERS_names(50)= 'c31',
(PID.TID 0000.0001) > PTRACERS_names(51)= 'c32',
(PID.TID 0000.0001) > PTRACERS_names(52)= 'c33',
(PID.TID 0000.0001) > PTRACERS_names(53)= 'c34',
(PID.TID 0000.0001) > PTRACERS_names(54)= 'c35',
(PID.TID 0000.0001) > PTRACERS_names(55)= 'c36',
(PID.TID 0000.0001) > PTRACERS_names(56)= 'c37',
(PID.TID 0000.0001) > PTRACERS_names(57)= 'c38',
(PID.TID 0000.0001) > PTRACERS_names(58)= 'n01',
(PID.TID 0000.0001) > PTRACERS_names(59)= 'n02',
(PID.TID 0000.0001) > PTRACERS_names(60)= 'n03',
(PID.TID 0000.0001) > PTRACERS_names(61)= 'n04',
(PID.TID 0000.0001) > PTRACERS_names(62)= 'n05',
(PID.TID 0000.0001) > PTRACERS_names(63)= 'n06',
(PID.TID 0000.0001) > PTRACERS_names(64)= 'n07',
(PID.TID 0000.0001) > PTRACERS_names(65)= 'n08',
(PID.TID 0000.0001) > PTRACERS_names(66)= 'n09',
(PID.TID 0000.0001) > PTRACERS_names(67)= 'n10',
(PID.TID 0000.0001) > PTRACERS_names(68)= 'n11',
(PID.TID 0000.0001) > PTRACERS_names(69)= 'n12',
(PID.TID 0000.0001) > PTRACERS_names(70)= 'n13',
(PID.TID 0000.0001) > PTRACERS_names(71)= 'n14',
(PID.TID 0000.0001) > PTRACERS_names(72)= 'n15',
(PID.TID 0000.0001) > PTRACERS_names(73)= 'n16',
(PID.TID 0000.0001) > PTRACERS_names(74)= 'n17',
(PID.TID 0000.0001) > PTRACERS_names(75)= 'n18',
(PID.TID 0000.0001) > PTRACERS_names(76)= 'n19',
(PID.TID 0000.0001) > PTRACERS_names(77)= 'n20',
(PID.TID 0000.0001) > PTRACERS_names(78)= 'n21',
(PID.TID 0000.0001) > PTRACERS_names(79)= 'n22',
(PID.TID 0000.0001) > PTRACERS_names(80)= 'n23',
(PID.TID 0000.0001) > PTRACERS_names(81)= 'n24',
(PID.TID 0000.0001) > PTRACERS_names(82)= 'n25',
(PID.TID 0000.0001) > PTRACERS_names(83)= 'n26',
(PID.TID 0000.0001) > PTRACERS_names(84)= 'n27',
(PID.TID 0000.0001) > PTRACERS_names(85)= 'n28',
(PID.TID 0000.0001) > PTRACERS_names(86)= 'n29',
(PID.TID 0000.0001) > PTRACERS_names(87)= 'n30',
(PID.TID 0000.0001) > PTRACERS_names(88)= 'n31',
(PID.TID 0000.0001) > PTRACERS_names(89)= 'n32',
(PID.TID 0000.0001) > PTRACERS_names(90)= 'n33',
(PID.TID 0000.0001) > PTRACERS_names(91)= 'n34',
(PID.TID 0000.0001) > PTRACERS_names(92)= 'n35',
(PID.TID 0000.0001) > PTRACERS_names(93)= 'n36',
(PID.TID 0000.0001) > PTRACERS_names(94)= 'n37',
(PID.TID 0000.0001) > PTRACERS_names(95)= 'n38',
(PID.TID 0000.0001) > PTRACERS_names(96)= 'p01',
(PID.TID 0000.0001) > PTRACERS_names(97)= 'p02',
(PID.TID 0000.0001) > PTRACERS_names(98)= 'p03',
(PID.TID 0000.0001) > PTRACERS_names(99)= 'p04',
(PID.TID 0000.0001) > PTRACERS_names(100)= 'p05',
(PID.TID 0000.0001) > PTRACERS_names(101)= 'p06',
(PID.TID 0000.0001) > PTRACERS_names(102)= 'p07',
(PID.TID 0000.0001) > PTRACERS_names(103)= 'p08',
(PID.TID 0000.0001) > PTRACERS_names(104)= 'p09',
(PID.TID 0000.0001) > PTRACERS_names(105)= 'p10',
(PID.TID 0000.0001) > PTRACERS_names(106)= 'p11',
(PID.TID 0000.0001) > PTRACERS_names(107)= 'p12',
(PID.TID 0000.0001) > PTRACERS_names(108)= 'p13',
(PID.TID 0000.0001) > PTRACERS_names(109)= 'p14',
(PID.TID 0000.0001) > PTRACERS_names(110)= 'p15',
(PID.TID 0000.0001) > PTRACERS_names(111)= 'p16',
(PID.TID 0000.0001) > PTRACERS_names(112)= 'p17',
(PID.TID 0000.0001) > PTRACERS_names(113)= 'p18',
(PID.TID 0000.0001) > PTRACERS_names(114)= 'p19',
(PID.TID 0000.0001) > PTRACERS_names(115)= 'p20',
(PID.TID 0000.0001) > PTRACERS_names(116)= 'p21',
(PID.TID 0000.0001) > PTRACERS_names(117)= 'p22',
(PID.TID 0000.0001) > PTRACERS_names(118)= 'p23',
(PID.TID 0000.0001) > PTRACERS_names(119)= 'p24',
(PID.TID 0000.0001) > PTRACERS_names(120)= 'p25',
(PID.TID 0000.0001) > PTRACERS_names(121)= 'p26',
(PID.TID 0000.0001) > PTRACERS_names(122)= 'p27',
(PID.TID 0000.0001) > PTRACERS_names(123)= 'p28',
(PID.TID 0000.0001) > PTRACERS_names(124)= 'p29',
(PID.TID 0000.0001) > PTRACERS_names(125)= 'p30',
(PID.TID 0000.0001) > PTRACERS_names(126)= 'p31',
(PID.TID 0000.0001) > PTRACERS_names(127)= 'p32',
(PID.TID 0000.0001) > PTRACERS_names(128)= 'p33',
(PID.TID 0000.0001) > PTRACERS_names(129)= 'p34',
(PID.TID 0000.0001) > PTRACERS_names(130)= 'p35',
(PID.TID 0000.0001) > PTRACERS_names(131)= 'p36',
(PID.TID 0000.0001) > PTRACERS_names(132)= 'p37',
(PID.TID 0000.0001) > PTRACERS_names(133)= 'p38',
(PID.TID 0000.0001) > PTRACERS_names(134)= 'fe01',
(PID.TID 0000.0001) > PTRACERS_names(135)= 'fe02',
(PID.TID 0000.0001) > PTRACERS_names(136)= 'fe03',
(PID.TID 0000.0001) > PTRACERS_names(137)= 'fe04',
(PID.TID 0000.0001) > PTRACERS_names(138)= 'fe05',
(PID.TID 0000.0001) > PTRACERS_names(139)= 'fe06',
(PID.TID 0000.0001) > PTRACERS_names(140)= 'fe07',
(PID.TID 0000.0001) > PTRACERS_names(141)= 'fe08',
(PID.TID 0000.0001) > PTRACERS_names(142)= 'fe09',
(PID.TID 0000.0001) > PTRACERS_names(143)= 'fe10',
(PID.TID 0000.0001) > PTRACERS_names(144)= 'fe11',
(PID.TID 0000.0001) > PTRACERS_names(145)= 'fe12',
(PID.TID 0000.0001) > PTRACERS_names(146)= 'fe13',
(PID.TID 0000.0001) > PTRACERS_names(147)= 'fe14',
(PID.TID 0000.0001) > PTRACERS_names(148)= 'fe15',
(PID.TID 0000.0001) > PTRACERS_names(149)= 'fe16',
(PID.TID 0000.0001) > PTRACERS_names(150)= 'fe17',
(PID.TID 0000.0001) > PTRACERS_names(151)= 'fe18',
(PID.TID 0000.0001) > PTRACERS_names(152)= 'fe19',
(PID.TID 0000.0001) > PTRACERS_names(153)= 'fe20',
(PID.TID 0000.0001) > PTRACERS_names(154)= 'fe21',
(PID.TID 0000.0001) > PTRACERS_names(155)= 'fe22',
(PID.TID 0000.0001) > PTRACERS_names(156)= 'fe23',
(PID.TID 0000.0001) > PTRACERS_names(157)= 'fe24',
(PID.TID 0000.0001) > PTRACERS_names(158)= 'fe25',
(PID.TID 0000.0001) > PTRACERS_names(159)= 'fe26',
(PID.TID 0000.0001) > PTRACERS_names(160)= 'fe27',
(PID.TID 0000.0001) > PTRACERS_names(161)= 'fe28',
(PID.TID 0000.0001) > PTRACERS_names(162)= 'fe29',
(PID.TID 0000.0001) > PTRACERS_names(163)= 'fe30',
(PID.TID 0000.0001) > PTRACERS_names(164)= 'fe31',
(PID.TID 0000.0001) > PTRACERS_names(165)= 'fe32',
(PID.TID 0000.0001) > PTRACERS_names(166)= 'fe33',
(PID.TID 0000.0001) > PTRACERS_names(167)= 'fe34',
(PID.TID 0000.0001) > PTRACERS_names(168)= 'fe35',
(PID.TID 0000.0001) > PTRACERS_names(169)= 'fe36',
(PID.TID 0000.0001) > PTRACERS_names(170)= 'fe37',
(PID.TID 0000.0001) > PTRACERS_names(171)= 'fe38',
(PID.TID 0000.0001) > PTRACERS_names(172)= 'si01',
(PID.TID 0000.0001) > PTRACERS_names(173)= 'si02',
(PID.TID 0000.0001) > PTRACERS_names(174)= 'si03',
(PID.TID 0000.0001) > PTRACERS_names(175)= 'si04',
(PID.TID 0000.0001) > PTRACERS_names(176)= 'si05',
(PID.TID 0000.0001) > PTRACERS_names(177)= 'si06',
(PID.TID 0000.0001) > PTRACERS_names(178)= 'si07',
(PID.TID 0000.0001) > PTRACERS_names(179)= 'si08',
(PID.TID 0000.0001) > PTRACERS_names(180)= 'si09',
(PID.TID 0000.0001) > PTRACERS_names(181)= 'si10',
(PID.TID 0000.0001) > PTRACERS_names(182)= 'si11',
(PID.TID 0000.0001) > PTRACERS_names(183)= 'si12',
(PID.TID 0000.0001) > PTRACERS_names(184)= 'si13',
(PID.TID 0000.0001) > PTRACERS_names(185)= 'si14',
(PID.TID 0000.0001) > PTRACERS_names(186)= 'si15',
(PID.TID 0000.0001) > PTRACERS_names(187)= 'si16',
(PID.TID 0000.0001) > PTRACERS_names(188)= 'si17',
(PID.TID 0000.0001) > PTRACERS_names(189)= 'si18',
(PID.TID 0000.0001) > PTRACERS_names(190)= 'si19',
(PID.TID 0000.0001) > PTRACERS_names(191)= 'si20',
(PID.TID 0000.0001) > PTRACERS_names(192)= 'si21',
(PID.TID 0000.0001) > PTRACERS_names(193)= 'si22',
(PID.TID 0000.0001) > PTRACERS_names(194)= 'si23',
(PID.TID 0000.0001) > PTRACERS_names(195)= 'si24',
(PID.TID 0000.0001) > PTRACERS_names(196)= 'si25',
(PID.TID 0000.0001) > PTRACERS_names(197)= 'si26',
(PID.TID 0000.0001) > PTRACERS_names(198)= 'si27',
(PID.TID 0000.0001) > PTRACERS_names(199)= 'si28',
(PID.TID 0000.0001) > PTRACERS_names(200)= 'si29',
(PID.TID 0000.0001) > PTRACERS_names(201)= 'si30',
(PID.TID 0000.0001) > PTRACERS_names(202)= 'si31',
(PID.TID 0000.0001) > PTRACERS_names(203)= 'si32',
(PID.TID 0000.0001) > PTRACERS_names(204)= 'si33',
(PID.TID 0000.0001) > PTRACERS_names(205)= 'si34',
(PID.TID 0000.0001) > PTRACERS_names(206)= 'si35',
(PID.TID 0000.0001) > PTRACERS_names(207)= 'si36',
(PID.TID 0000.0001) > PTRACERS_names(208)= 'si37',
(PID.TID 0000.0001) > PTRACERS_names(209)= 'si38',
(PID.TID 0000.0001) > PTRACERS_names(210)= 'Chl01',
(PID.TID 0000.0001) > PTRACERS_names(211)= 'Chl02',
(PID.TID 0000.0001) > PTRACERS_names(212)= 'Chl03',
(PID.TID 0000.0001) > PTRACERS_names(213)= 'Chl04',
(PID.TID 0000.0001) > PTRACERS_names(214)= 'Chl05',
(PID.TID 0000.0001) > PTRACERS_names(215)= 'Chl06',
(PID.TID 0000.0001) > PTRACERS_names(216)= 'Chl07',
(PID.TID 0000.0001) > PTRACERS_names(217)= 'Chl08',
(PID.TID 0000.0001) > PTRACERS_names(218)= 'Chl09',
(PID.TID 0000.0001) > PTRACERS_names(219)= 'Chl10',
(PID.TID 0000.0001) > PTRACERS_names(220)= 'Chl11',
(PID.TID 0000.0001) > PTRACERS_names(221)= 'Chl12',
(PID.TID 0000.0001) > PTRACERS_names(222)= 'Chl13',
(PID.TID 0000.0001) > PTRACERS_names(223)= 'Chl14',
(PID.TID 0000.0001) > PTRACERS_names(224)= 'Chl15',
(PID.TID 0000.0001) > PTRACERS_names(225)= 'Chl16',
(PID.TID 0000.0001) > PTRACERS_names(226)= 'Chl17',
(PID.TID 0000.0001) > PTRACERS_names(227)= 'Chl18',
(PID.TID 0000.0001) > PTRACERS_names(228)= 'Chl19',
(PID.TID 0000.0001) > PTRACERS_names(229)= 'Chl20',
(PID.TID 0000.0001) > PTRACERS_names(230)= 'Chl21',
(PID.TID 0000.0001) > PTRACERS_names(231)= 'Chl22',
(PID.TID 0000.0001) > PTRACERS_names(232)= 'Chl23',
(PID.TID 0000.0001) > PTRACERS_names(233)= 'Chl24',
(PID.TID 0000.0001) >#
(PID.TID 0000.0001) > PTRACERS_units(1)='mmol C/m^3',
(PID.TID 0000.0001) > PTRACERS_units(2)='mmol N/m^3',
(PID.TID 0000.0001) > PTRACERS_units(3)='mmol N/m^3',
(PID.TID 0000.0001) > PTRACERS_units(4)='mmol N/m^3',
(PID.TID 0000.0001) > PTRACERS_units(5)='mmol P/m^3',
(PID.TID 0000.0001) > PTRACERS_units(6)='mmol Si/m^3',
(PID.TID 0000.0001) > PTRACERS_units(7)='mmol Fe/m^3',
(PID.TID 0000.0001) > PTRACERS_units(8)='mmol C/m^3',
(PID.TID 0000.0001) > PTRACERS_units(9)='mmol N/m^3',
(PID.TID 0000.0001) > PTRACERS_units(10)='mmol P/m^3',
(PID.TID 0000.0001) > PTRACERS_units(11)='mmol Fe/m^3',
(PID.TID 0000.0001) > PTRACERS_units(12)='mmol C/m^3',
(PID.TID 0000.0001) > PTRACERS_units(13)='mmol N/m^3',
(PID.TID 0000.0001) > PTRACERS_units(14)='mmol P/m^3',
(PID.TID 0000.0001) > PTRACERS_units(15)='mmol Si/m^3',
(PID.TID 0000.0001) > PTRACERS_units(16)='mmol Fe/m^3',
(PID.TID 0000.0001) > PTRACERS_units(17)='mmol C/m^3',
(PID.TID 0000.0001) > PTRACERS_units(18)='mmol eq/m^3',
(PID.TID 0000.0001) > PTRACERS_units(19)='mmol O/m^3',
(PID.TID 0000.0001) > PTRACERS_units(20:57)=38*'mmol C/m^3',
(PID.TID 0000.0001) > PTRACERS_units(58:95)=38*'mmol N/m^3',
(PID.TID 0000.0001) > PTRACERS_units(96:133)=38*'mmol P/m^3',
(PID.TID 0000.0001) > PTRACERS_units(134:171)=38*'mmol Fe/m^3',
(PID.TID 0000.0001) > PTRACERS_units(172:209)=38*'mmol Si/m^3',
(PID.TID 0000.0001) > PTRACERS_units(210:233)=24*'mg Chl a/m^3',
(PID.TID 0000.0001) > PTRACERS_initialFile(1)= '../input/input/loc1_glodap_tco2_ann-3d.bin',
(PID.TID 0000.0001) > PTRACERS_initialFile(2)= '../input/input/loc1_nh4_y2000.data',
(PID.TID 0000.0001) > PTRACERS_initialFile(3)= '../input/input/loc1_no2_y2000.data',
(PID.TID 0000.0001) > PTRACERS_initialFile(4)= '../input/input/loc1_lev01_nitrate_ann-3d.bin',
(PID.TID 0000.0001) > PTRACERS_initialFile(5)= '../input/input/loc1_lev01_phosphate_ann-3d.bin',
(PID.TID 0000.0001) > PTRACERS_initialFile(6)= '../input/input/loc1_lev01_silicate_ann-3d.bin ',
(PID.TID 0000.0001) > PTRACERS_initialFile(7)= '../input/input/loc1_fet_y2000.data',
(PID.TID 0000.0001) > PTRACERS_initialFile(8)= '../input/input/loc1_doc_y2000.data',
(PID.TID 0000.0001) > PTRACERS_initialFile(9)= '../input/input/loc1_don_y2000.data',
(PID.TID 0000.0001) > PTRACERS_initialFile(10)='../input/input/loc1_dop_y2000.data',
(PID.TID 0000.0001) > PTRACERS_initialFile(11)='../input/input/loc1_dofe_y2000.data',
(PID.TID 0000.0001) > PTRACERS_initialFile(12)='../input/input/loc1_poc_y2000.data',
(PID.TID 0000.0001) > PTRACERS_initialFile(13)='../input/input/loc1_pon_y2000.data',
(PID.TID 0000.0001) > PTRACERS_initialFile(14)='../input/input/loc1_pop_y2000.data',
(PID.TID 0000.0001) > PTRACERS_initialFile(15)='../input/input/loc1_posi_y2000.data',
(PID.TID 0000.0001) > PTRACERS_initialFile(16)='../input/input/loc1_pofe_y2000.data',
(PID.TID 0000.0001) > PTRACERS_initialFile(17)='../input/input/loc1_pic_y2000.data',
(PID.TID 0000.0001) > PTRACERS_initialFile(18)='../input/input/loc1_glodap_alk_ann-3d.bin',
(PID.TID 0000.0001) > PTRACERS_initialFile(19)='../input/input/loc1_lev01_oxygen_ann-3d.bin',
(PID.TID 0000.0001) > PTRACERS_initialFile(20:57)=38*'../input/input/loc1_phy78_x120_lev01.bin',
(PID.TID 0000.0001) > PTRACERS_initialFile(58:61)=4*'../input/input/loc1_phy78_x16_lev01.bin',
(PID.TID 0000.0001) > PTRACERS_initialFile(62)=     '../input/input/loc1_phy78_x40_lev01.bin',
(PID.TID 0000.0001) > PTRACERS_initialFile(63:64)=2*'../input/input/loc1_phy78_x16_lev01.bin',
(PID.TID 0000.0001) > PTRACERS_initialFile(65)=     '../input/input/loc1_phy78_x40_lev01.bin',
(PID.TID 0000.0001) > PTRACERS_initialFile(66:67)=2*'../input/input/loc1_phy78_x16_lev01.bin',
(PID.TID 0000.0001) > PTRACERS_initialFile(68)=     '../input/input/loc1_phy78_x40_lev01.bin',
(PID.TID 0000.0001) > PTRACERS_initialFile(69:70)=2*'../input/input/loc1_phy78_x16_lev01.bin',
(PID.TID 0000.0001) > PTRACERS_initialFile(71)=     '../input/input/loc1_phy78_x40_lev01.bin',
(PID.TID 0000.0001) > PTRACERS_initialFile(72:73)=2*'../input/input/loc1_phy78_x16_lev01.bin',
(PID.TID 0000.0001) > PTRACERS_initialFile(74)=     '../input/input/loc1_phy78_x40_lev01.bin',
(PID.TID 0000.0001) > PTRACERS_initialFile(75:81)=7*'../input/input/loc1_phy78_x16_lev01.bin',
(PID.TID 0000.0001) > PTRACERS_initialFile(82:95)=14*'../input/input/loc1_phy78_x16_lev01.bin',
(PID.TID 0000.0001) > PTRACERS_initialFile(96:133)=38*'../input/input/loc1_phy78_lev01.bin',
(PID.TID 0000.0001) > PTRACERS_initialFile(134:137)=4*'../input/input/loc1_phy78_x0.001_lev01.bin',
(PID.TID 0000.0001) > PTRACERS_initialFile(138)=     '../input/input/loc1_phy78_x0.004_lev01.bin',
(PID.TID 0000.0001) > PTRACERS_initialFile(139:140)=2*'../input/input/loc1_phy78_x0.001_lev01.bin',
(PID.TID 0000.0001) > PTRACERS_initialFile(141)=     '../input/input/loc1_phy78_x0.004_lev01.bin',
(PID.TID 0000.0001) > PTRACERS_initialFile(142:143)=2*'../input/input/loc1_phy78_x0.001_lev01.bin',
(PID.TID 0000.0001) > PTRACERS_initialFile(144)=     '../input/input/loc1_phy78_x0.004_lev01.bin',
(PID.TID 0000.0001) > PTRACERS_initialFile(145:146)=2*'../input/input/loc1_phy78_x0.001_lev01.bin',
(PID.TID 0000.0001) > PTRACERS_initialFile(147)=     '../input/input/loc1_phy78_x0.004_lev01.bin',
(PID.TID 0000.0001) > PTRACERS_initialFile(148:149)=2*'../input/input/loc1_phy78_x0.001_lev01.bin',
(PID.TID 0000.0001) > PTRACERS_initialFile(150)=     '../input/input/loc1_phy78_x0.004_lev01.bin',
(PID.TID 0000.0001) > PTRACERS_initialFile(151:157)=7*'../input/input/loc1_phy78_x0.001_lev01.bin',
(PID.TID 0000.0001) > PTRACERS_initialFile(158:171)=14*'../input/input/loc1_phy78_x0.001_lev01.bin',
(PID.TID 0000.0001) > PTRACERS_initialFile(172:177)=6*' ',
(PID.TID 0000.0001) > PTRACERS_initialFile(178)=      '../input/input/loc1_phy78_x16_lev01.bin',
(PID.TID 0000.0001) > PTRACERS_initialFile(179:180)=2*' ',
(PID.TID 0000.0001) > PTRACERS_initialFile(181)=      '../input/input/loc1_phy78_x16_lev01.bin',
(PID.TID 0000.0001) > PTRACERS_initialFile(182:183)=2*' ',
(PID.TID 0000.0001) > PTRACERS_initialFile(184)=      '../input/input/loc1_phy78_x16_lev01.bin',
(PID.TID 0000.0001) > PTRACERS_initialFile(185:186)=2*' ',
(PID.TID 0000.0001) > PTRACERS_initialFile(187)=      '../input/input/loc1_phy78_x16_lev01.bin',
(PID.TID 0000.0001) > PTRACERS_initialFile(188:189)=2*' ',
(PID.TID 0000.0001) > PTRACERS_initialFile(190)=      '../input/input/loc1_phy78_x16_lev01.bin',
(PID.TID 0000.0001) > PTRACERS_initialFile(191)=      ' ',
(PID.TID 0000.0001) > PTRACERS_initialFile(192:195)=4*'../input/input/loc1_phy78_x16_lev01.bin',
(PID.TID 0000.0001) > PTRACERS_initialFile(196:209)=14*' ',
(PID.TID 0000.0001) > PTRACERS_initialFile(210:233)=24*' ',
(PID.TID 0000.0001) > /
(PID.TID 0000.0001) 
(PID.TID 0000.0001)  PTRACERS_READPARMS: finished reading data.ptracers
(PID.TID 0000.0001)  GCHEM_READPARMS: opening data.gchem
(PID.TID 0000.0001)  OPEN_COPY_DATA_FILE: opening file data.gchem
(PID.TID 0000.0001) // =======================================================
(PID.TID 0000.0001) // Removing comments from "data.gchem"
(PID.TID 0000.0001) // =======================================================
(PID.TID 0000.0001)    1  &GCHEM_PARM01
(PID.TID 0000.0001)    2   useGUD=.TRUE.,
(PID.TID 0000.0001)    3   nsubtime=1,
(PID.TID 0000.0001)    4  /
(PID.TID 0000.0001) // =======================================================
(PID.TID 0000.0001) // Parameter file "data.gchem"
(PID.TID 0000.0001) // =======================================================
(PID.TID 0000.0001) > &GCHEM_PARM01
(PID.TID 0000.0001) >  useGUD=.TRUE.,
(PID.TID 0000.0001) >  nsubtime=1,
(PID.TID 0000.0001) > /
(PID.TID 0000.0001) 
(PID.TID 0000.0001)  GCHEM_READPARMS: finished reading data.gchem
(PID.TID 0000.0001)  GUD_READPARMS: opening data.gud
(PID.TID 0000.0001)  OPEN_COPY_DATA_FILE: opening file data.gud
(PID.TID 0000.0001) // =======================================================
(PID.TID 0000.0001) // Removing comments from "data.gud"
(PID.TID 0000.0001) // =======================================================
(PID.TID 0000.0001)    1  &GUD_FORCING_PARAMS
(PID.TID 0000.0001)    2  gud_chlInitBalanced= T,
(PID.TID 0000.0001)    3  ironFile='../input/input/loc1_mahowald2009_solubile_current_smooth_oce_mth-2d.bin',
(PID.TID 0000.0001)    4  PARFile='../input/input/loc1_ecco_oasim_total_below_oneband_einm2d.bin',
(PID.TID 0000.0001)    5  windFile='../input/input/loc1_tren_speed_mth-2d.bin',
(PID.TID 0000.0001)    6  ironPeriod= -12.,
(PID.TID 0000.0001)    7  PARPeriod= -12.,
(PID.TID 0000.0001)    8  windPeriod= -12.,
(PID.TID 0000.0001)    9  gud_inscal_iron= 1000.,
(PID.TID 0000.0001)   10  gud_inscal_PAR= 11.574074074074,
(PID.TID 0000.0001)   11  /
(PID.TID 0000.0001)   12  &GUD_PARAMS
(PID.TID 0000.0001)   13  diaz_ini_fac= 0.1,
(PID.TID 0000.0001)   14  gud_seed= 56,
(PID.TID 0000.0001)   15  gud_read_phos= F,
(PID.TID 0000.0001)   16  tempCoeffArr= 0.8,
(PID.TID 0000.0001)   17  PARmin= 0.1,
(PID.TID 0000.0001)   18  alpfe= 1.0,
(PID.TID 0000.0001)   19  freefemax = .1E-3,
(PID.TID 0000.0001)   20  depthfesed= 7000.,
(PID.TID 0000.0001)   21  scav_rat= 1.73611111111111111111E-7,
(PID.TID 0000.0001)   22  kdoc=  3.8580246913580247E-7,  ! 1/30day
(PID.TID 0000.0001)   23  kdop=  3.8580246913580247E-7,  ! 1/30day
(PID.TID 0000.0001)   24  kdon=  3.8580246913580247E-7,  ! 1/30day
(PID.TID 0000.0001)   25  kdofe= 3.8580246913580247E-7,  ! 1/30day
(PID.TID 0000.0001)   26  kPOC=  3.8580246913580247E-7,  ! 1/30day
(PID.TID 0000.0001)   27  kPOP=  3.8580246913580247E-7,  ! 1/30day
(PID.TID 0000.0001)   28  kPON=  3.8580246913580247E-7,  ! 1/30day
(PID.TID 0000.0001)   29  kPOFe= 3.8580246913580247E-7,  ! 1/30day
(PID.TID 0000.0001)   30  kPOSi= 7.7160493827160493E-8,  ! 1/150day
(PID.TID 0000.0001)   31  phygrazmin= 120E-10,
(PID.TID 0000.0001)   32  gud_atmos_pCO2= 278E-6,
(PID.TID 0000.0001)   33  inhib_graz_exp= 1.0,
(PID.TID 0000.0001)   34  /
(PID.TID 0000.0001)   35  &GUD_RADTRANS_PARAMS
(PID.TID 0000.0001)   36  /
(PID.TID 0000.0001)   37  &GUD_RANDOM_PARAMS
(PID.TID 0000.0001)   38  /
(PID.TID 0000.0001)   39  &GUD_TRAIT_PARAMS
(PID.TID 0000.0001)   40  gud_sort_biovol= T,
(PID.TID 0000.0001)   41  grp_nplank(:)=  9, 0, 2, 1, 5, 6, 1,14,
(PID.TID 0000.0001)   42  grp_photo(:)=   1, 1, 1, 1, 1, 1, 1, 0,
(PID.TID 0000.0001)   43  grp_pred(:)=    0, 0, 0, 0, 0, 0, 0, 1,
(PID.TID 0000.0001)   44  grp_prey(:)=    1, 1, 1, 1, 1, 1, 1, 0,
(PID.TID 0000.0001)   45  grp_hasSi(:)=   1, 0, 0, 0, 0, 0, 0, 0,
(PID.TID 0000.0001)   46  grp_hasPIC(:)=  0, 0, 0, 0, 0, 1, 0, 0,
(PID.TID 0000.0001)   47  grp_DIAZO(:)=   0, 0, 0, 0, 1, 0, 0, 0,
(PID.TID 0000.0001)   48  grp_useNH4(:)=  1, 1, 1, 1, 1, 1, 1, 0,
(PID.TID 0000.0001)   49  grp_useNO2(:)=  1, 1, 1, 1, 1, 1, 1, 0,
(PID.TID 0000.0001)   50  grp_useNO3(:)=  1, 1, 1, 1, 1, 1, 1, 0,
(PID.TID 0000.0001)   51  grp_combNO(:)=  1, 1, 1, 1, 1, 1, 1, 0,
(PID.TID 0000.0001)   52  grp_tempMort(:)= 1, 1, 1, 1, 1, 1, 1, 1,
(PID.TID 0000.0001)   53  grp_tempMort2(:)=1, 1, 1, 1, 1, 1, 1, 1,
(PID.TID 0000.0001)   54  grp_Xmin(:)= 7*120E-20,
(PID.TID 0000.0001)   55
(PID.TID 0000.0001)   56  grp_mqyield(:)= 7*5E-5,
(PID.TID 0000.0001)   57  grp_chl2cmax(:)= 7*.3,
(PID.TID 0000.0001)   58  grp_acclimtimescl(:)= 7*5.7870370370370370E-6,
(PID.TID 0000.0001)   59  biovol0(1)=  41.54320512418612,   ! D
(PID.TID 0000.0001)   60  biovol0(2)=  0.,
(PID.TID 0000.0001)   61  biovol0(3)=  1.2008810730146715,  ! s
(PID.TID 0000.0001)   62  biovol0(4)=  0.11310973893337056, ! P
(PID.TID 0000.0001)   63  biovol0(5)=  12.749700999437144,  ! T
(PID.TID 0000.0001)   64  biovol0(6)=  12.749700999437144,  ! C
(PID.TID 0000.0001)   65  biovol0(7)=  0.3685530418524794,  ! S
(PID.TID 0000.0001)   66  biovol0(8)=  1.2008810730146715,  ! Z
(PID.TID 0000.0001)   67  biovolfac(:)= 8*3.2583670100200877,
(PID.TID 0000.0001)   68  a_biosink(:)= 7*6.951416635391563E-7, 0.,  ! .05*dm**.85
(PID.TID 0000.0001)   69  b_biosink(:)= 7*.2833333333333333, 0.,
(PID.TID 0000.0001)   70  a_vmax_DIC(1)= 8.680555555555556E-5,   ! 7.5/day
(PID.TID 0000.0001)   71  a_vmax_DIC(2)= 2.3148148148148147E-5,  ! 2.0/day
(PID.TID 0000.0001)   72  a_vmax_DIC(3)= 6.944444444444444E-6,   ! 0.6/day
(PID.TID 0000.0001)   73  a_vmax_DIC(4)= 6.944444444444444E-6,   ! 0.6/day
(PID.TID 0000.0001)   74  a_vmax_DIC(5)= 1.0416666666666666E-5,  ! 0.9/day
(PID.TID 0000.0001)   75  a_vmax_DIC(6)= 3.472222222222222E-5,   ! 3.0/day
(PID.TID 0000.0001)   76  a_vmax_DIC(7)= 6.944444444444444E-6,   ! 0.6/day
(PID.TID 0000.0001)   77  b_vmax_DIC(:)= -0.15, -0.15, 0.07, 0.07, -0.15, -0.15, 0.07,
(PID.TID 0000.0001)   78  gud_effective_ksat= T,
(PID.TID 0000.0001)   79  grp_ExportFrac(:)= .4, .4, .1, .1, .4, .4, .1, .6,
(PID.TID 0000.0001)   80  grp_ExportFracPreyPred(1:7,8)= 7*.8,
(PID.TID 0000.0001)   81  grp_R_ChlC(8)= 0.,
(PID.TID 0000.0001)   82  a_graz(8)= 2.3148148148148147e-05,  ! 2/day
(PID.TID 0000.0001)   83  b_graz(8)= -.16,
(PID.TID 0000.0001)   84  grp_mort(:)= 7*1.6534391534391533e-06, 2.3148148148148148e-07,  ! 1/7days, 1/50days
(PID.TID 0000.0001)   85  grp_mort2(:)= 7*0., 9.259259259259258e-07,  ! 16*.6/120/day
(PID.TID 0000.0001)   86  grp_tempcoeff2= 7*.0003,
(PID.TID 0000.0001)   87  grp_R_PC(:)= 8*0.008333333333333333,
(PID.TID 0000.0001)   88  grp_R_FeC(:)= 4*0.008333333333333333E-3, 0.03333333333333333E-3, 3*0.008333333333333333E-3,
(PID.TID 0000.0001)   89  grp_R_NC(:)= 4*0.13333333333333333, 0.3333333333333333, 3*0.13333333333333333,
(PID.TID 0000.0001)   90  grp_R_SiC(:)= 0.13333333333333333, 7*0.,
(PID.TID 0000.0001)   91  grp_R_PICPOC(:)= 5*0., .8, 2*0.,
(PID.TID 0000.0001)   92  a_kg(8)= 6.,
(PID.TID 0000.0001)   93  b_kg(8)= 0.,
(PID.TID 0000.0001)   94
(PID.TID 0000.0001)   95  grp_ass_eff(:,:)= 64*0.5,
(PID.TID 0000.0001)   96  /
(PID.TID 0000.0001) // =======================================================
(PID.TID 0000.0001) // Parameter file "data.gud"
(PID.TID 0000.0001) // =======================================================
(PID.TID 0000.0001) >########################
(PID.TID 0000.0001) > &GUD_FORCING_PARAMS
(PID.TID 0000.0001) > gud_chlInitBalanced= T,
(PID.TID 0000.0001) > ironFile='../input/input/loc1_mahowald2009_solubile_current_smooth_oce_mth-2d.bin',
(PID.TID 0000.0001) > PARFile='../input/input/loc1_ecco_oasim_total_below_oneband_einm2d.bin',
(PID.TID 0000.0001) > windFile='../input/input/loc1_tren_speed_mth-2d.bin',
(PID.TID 0000.0001) > ironPeriod= -12.,
(PID.TID 0000.0001) > PARPeriod= -12.,
(PID.TID 0000.0001) > windPeriod= -12.,
(PID.TID 0000.0001) > gud_inscal_iron= 1000.,
(PID.TID 0000.0001) > gud_inscal_PAR= 11.574074074074,
(PID.TID 0000.0001) > /
(PID.TID 0000.0001) >########################
(PID.TID 0000.0001) > &GUD_PARAMS
(PID.TID 0000.0001) > diaz_ini_fac= 0.1,
(PID.TID 0000.0001) > gud_seed= 56,
(PID.TID 0000.0001) > gud_read_phos= F,
(PID.TID 0000.0001) > tempCoeffArr= 0.8,
(PID.TID 0000.0001) > PARmin= 0.1,
(PID.TID 0000.0001) > alpfe= 1.0,
(PID.TID 0000.0001) > freefemax = .1E-3,
(PID.TID 0000.0001) > depthfesed= 7000.,
(PID.TID 0000.0001) > scav_rat= 1.73611111111111111111E-7,
(PID.TID 0000.0001) > kdoc=  3.8580246913580247E-7,  ! 1/30day
(PID.TID 0000.0001) > kdop=  3.8580246913580247E-7,  ! 1/30day
(PID.TID 0000.0001) > kdon=  3.8580246913580247E-7,  ! 1/30day
(PID.TID 0000.0001) > kdofe= 3.8580246913580247E-7,  ! 1/30day
(PID.TID 0000.0001) > kPOC=  3.8580246913580247E-7,  ! 1/30day
(PID.TID 0000.0001) > kPOP=  3.8580246913580247E-7,  ! 1/30day
(PID.TID 0000.0001) > kPON=  3.8580246913580247E-7,  ! 1/30day
(PID.TID 0000.0001) > kPOFe= 3.8580246913580247E-7,  ! 1/30day
(PID.TID 0000.0001) > kPOSi= 7.7160493827160493E-8,  ! 1/150day
(PID.TID 0000.0001) > phygrazmin= 120E-10,
(PID.TID 0000.0001) > gud_atmos_pCO2= 278E-6,
(PID.TID 0000.0001) > inhib_graz_exp= 1.0,
(PID.TID 0000.0001) > /
(PID.TID 0000.0001) >########################
(PID.TID 0000.0001) > &GUD_RADTRANS_PARAMS
(PID.TID 0000.0001) > /
(PID.TID 0000.0001) >########################
(PID.TID 0000.0001) > &GUD_RANDOM_PARAMS
(PID.TID 0000.0001) > /
(PID.TID 0000.0001) >########################
(PID.TID 0000.0001) > &GUD_TRAIT_PARAMS
(PID.TID 0000.0001) > gud_sort_biovol= T,
(PID.TID 0000.0001) >#                1  2  3  4  5  6  7  8
(PID.TID 0000.0001) >#                D  l  s  P  T  C  S  Z
(PID.TID 0000.0001) > grp_nplank(:)=  9, 0, 2, 1, 5, 6, 1,14,
(PID.TID 0000.0001) > grp_photo(:)=   1, 1, 1, 1, 1, 1, 1, 0,
(PID.TID 0000.0001) > grp_pred(:)=    0, 0, 0, 0, 0, 0, 0, 1,
(PID.TID 0000.0001) > grp_prey(:)=    1, 1, 1, 1, 1, 1, 1, 0,
(PID.TID 0000.0001) > grp_hasSi(:)=   1, 0, 0, 0, 0, 0, 0, 0,
(PID.TID 0000.0001) > grp_hasPIC(:)=  0, 0, 0, 0, 0, 1, 0, 0,
(PID.TID 0000.0001) > grp_DIAZO(:)=   0, 0, 0, 0, 1, 0, 0, 0,
(PID.TID 0000.0001) > grp_useNH4(:)=  1, 1, 1, 1, 1, 1, 1, 0,
(PID.TID 0000.0001) > grp_useNO2(:)=  1, 1, 1, 1, 1, 1, 1, 0,
(PID.TID 0000.0001) > grp_useNO3(:)=  1, 1, 1, 1, 1, 1, 1, 0,
(PID.TID 0000.0001) > grp_combNO(:)=  1, 1, 1, 1, 1, 1, 1, 0,
(PID.TID 0000.0001) > grp_tempMort(:)= 1, 1, 1, 1, 1, 1, 1, 1,
(PID.TID 0000.0001) > grp_tempMort2(:)=1, 1, 1, 1, 1, 1, 1, 1,
(PID.TID 0000.0001) > grp_Xmin(:)= 7*120E-20,
(PID.TID 0000.0001) >
(PID.TID 0000.0001) > grp_mqyield(:)= 7*5E-5,
(PID.TID 0000.0001) > grp_chl2cmax(:)= 7*.3,
(PID.TID 0000.0001) > grp_acclimtimescl(:)= 7*5.7870370370370370E-6,
(PID.TID 0000.0001) > biovol0(1)=  41.54320512418612,   ! D
(PID.TID 0000.0001) > biovol0(2)=  0.,
(PID.TID 0000.0001) > biovol0(3)=  1.2008810730146715,  ! s
(PID.TID 0000.0001) > biovol0(4)=  0.11310973893337056, ! P
(PID.TID 0000.0001) > biovol0(5)=  12.749700999437144,  ! T
(PID.TID 0000.0001) > biovol0(6)=  12.749700999437144,  ! C
(PID.TID 0000.0001) > biovol0(7)=  0.3685530418524794,  ! S
(PID.TID 0000.0001) > biovol0(8)=  1.2008810730146715,  ! Z
(PID.TID 0000.0001) > biovolfac(:)= 8*3.2583670100200877,
(PID.TID 0000.0001) > a_biosink(:)= 7*6.951416635391563E-7, 0.,  ! .05*dm**.85
(PID.TID 0000.0001) > b_biosink(:)= 7*.2833333333333333, 0.,
(PID.TID 0000.0001) > a_vmax_DIC(1)= 8.680555555555556E-5,   ! 7.5/day
(PID.TID 0000.0001) > a_vmax_DIC(2)= 2.3148148148148147E-5,  ! 2.0/day
(PID.TID 0000.0001) > a_vmax_DIC(3)= 6.944444444444444E-6,   ! 0.6/day
(PID.TID 0000.0001) > a_vmax_DIC(4)= 6.944444444444444E-6,   ! 0.6/day
(PID.TID 0000.0001) > a_vmax_DIC(5)= 1.0416666666666666E-5,  ! 0.9/day
(PID.TID 0000.0001) > a_vmax_DIC(6)= 3.472222222222222E-5,   ! 3.0/day
(PID.TID 0000.0001) > a_vmax_DIC(7)= 6.944444444444444E-6,   ! 0.6/day
(PID.TID 0000.0001) > b_vmax_DIC(:)= -0.15, -0.15, 0.07, 0.07, -0.15, -0.15, 0.07,
(PID.TID 0000.0001) >#
(PID.TID 0000.0001) > gud_effective_ksat= T,
(PID.TID 0000.0001) >#
(PID.TID 0000.0001) > grp_ExportFrac(:)= .4, .4, .1, .1, .4, .4, .1, .6,
(PID.TID 0000.0001) > grp_ExportFracPreyPred(1:7,8)= 7*.8,
(PID.TID 0000.0001) > grp_R_ChlC(8)= 0.,
(PID.TID 0000.0001) > a_graz(8)= 2.3148148148148147e-05,  ! 2/day
(PID.TID 0000.0001) > b_graz(8)= -.16,
(PID.TID 0000.0001) >#
(PID.TID 0000.0001) > grp_mort(:)= 7*1.6534391534391533e-06, 2.3148148148148148e-07,  ! 1/7days, 1/50days
(PID.TID 0000.0001) > grp_mort2(:)= 7*0., 9.259259259259258e-07,  ! 16*.6/120/day
(PID.TID 0000.0001) > grp_tempcoeff2= 7*.0003,
(PID.TID 0000.0001) > grp_R_PC(:)= 8*0.008333333333333333,
(PID.TID 0000.0001) > grp_R_FeC(:)= 4*0.008333333333333333E-3, 0.03333333333333333E-3, 3*0.008333333333333333E-3,
(PID.TID 0000.0001) > grp_R_NC(:)= 4*0.13333333333333333, 0.3333333333333333, 3*0.13333333333333333,
(PID.TID 0000.0001) > grp_R_SiC(:)= 0.13333333333333333, 7*0.,
(PID.TID 0000.0001) > grp_R_PICPOC(:)= 5*0., .8, 2*0.,
(PID.TID 0000.0001) > a_kg(8)= 6.,
(PID.TID 0000.0001) > b_kg(8)= 0.,
(PID.TID 0000.0001) >
(PID.TID 0000.0001) > grp_ass_eff(:,:)= 64*0.5,
(PID.TID 0000.0001) > /
(PID.TID 0000.0001) 
(PID.TID 0000.0001)  ===================================
(PID.TID 0000.0001)  DIAGNOSTICS_READPARMS: opening data.diagnostics
(PID.TID 0000.0001)  OPEN_COPY_DATA_FILE: opening file data.diagnostics
(PID.TID 0000.0001) // =======================================================
(PID.TID 0000.0001) // Removing comments from "data.diagnostics"
(PID.TID 0000.0001) // =======================================================
(PID.TID 0000.0001)    1  &diagnostics_list
(PID.TID 0000.0001)    2   frequency(1) = 3600.,
(PID.TID 0000.0001)    3   fields( 1,1) = 'TRAC01  ',
(PID.TID 0000.0001)    4   fields( 2,1) = 'TRAC02  ',
(PID.TID 0000.0001)    5   fields( 3,1) = 'TRAC03  ',
(PID.TID 0000.0001)    6   fields( 4,1) = 'TRAC04  ',
(PID.TID 0000.0001)    7   fields( 5,1) = 'TRAC05  ',
(PID.TID 0000.0001)    8   fields( 6,1) = 'TRAC06  ',
(PID.TID 0000.0001)    9   fields( 7,1) = 'TRAC07  ',
(PID.TID 0000.0001)   10   fields( 8,1) = 'TRAC08  ',
(PID.TID 0000.0001)   11   fields( 9,1) = 'TRAC09  ',
(PID.TID 0000.0001)   12   fields(10,1) = 'TRAC10  ',
(PID.TID 0000.0001)   13   fields(11,1) = 'TRAC11  ',
(PID.TID 0000.0001)   14   fields(12,1) = 'TRAC12  ',
(PID.TID 0000.0001)   15   fields(13,1) = 'TRAC13  ',
(PID.TID 0000.0001)   16   fields(14,1) = 'TRAC14  ',
(PID.TID 0000.0001)   17   fields(15,1) = 'TRAC15  ',
(PID.TID 0000.0001)   18   fields(16,1) = 'TRAC16  ',
(PID.TID 0000.0001)   19   fields(17,1) = 'TRAC17  ',
(PID.TID 0000.0001)   20   fields(18,1) = 'TRAC18  ',
(PID.TID 0000.0001)   21   fields(19,1) = 'TRAC19  ',
(PID.TID 0000.0001)   22   fields(20,1) = 'TRAC20  ',
(PID.TID 0000.0001)   23   fields(21,1) = 'TRAC21  ',
(PID.TID 0000.0001)   24   fields(22,1) = 'TRAC22  ',
(PID.TID 0000.0001)   25   fields(23,1) = 'TRAC23  ',
(PID.TID 0000.0001)   26   fields(24,1) = 'TRAC24  ',
(PID.TID 0000.0001)   27   fields(25,1) = 'TRAC25  ',
(PID.TID 0000.0001)   28   fields(26,1) = 'TRAC26  ',
(PID.TID 0000.0001)   29   fields(27,1) = 'TRAC27  ',
(PID.TID 0000.0001)   30   fields(28,1) = 'TRAC28  ',
(PID.TID 0000.0001)   31   fields(29,1) = 'TRAC29  ',
(PID.TID 0000.0001)   32   fields(30,1) = 'TRAC30  ',
(PID.TID 0000.0001)   33   fields(31,1) = 'TRAC31  ',
(PID.TID 0000.0001)   34   fields(32,1) = 'TRAC32  ',
(PID.TID 0000.0001)   35   fields(33,1) = 'TRAC33  ',
(PID.TID 0000.0001)   36   fields(34,1) = 'TRAC34  ',
(PID.TID 0000.0001)   37   fields(35,1) = 'TRAC35  ',
(PID.TID 0000.0001)   38   fields(36,1) = 'TRAC36  ',
(PID.TID 0000.0001)   39   fields(37,1) = 'TRAC37  ',
(PID.TID 0000.0001)   40   fields(38,1) = 'TRAC38  ',
(PID.TID 0000.0001)   41   fields(39,1) = 'TRAC39  ',
(PID.TID 0000.0001)   42   fields(40,1) = 'TRAC40  ',
(PID.TID 0000.0001)   43   fields(41,1) = 'TRAC41  ',
(PID.TID 0000.0001)   44   fields(42,1) = 'TRAC42  ',
(PID.TID 0000.0001)   45   fields(43,1) = 'TRAC43  ',
(PID.TID 0000.0001)   46   fields(44,1) = 'TRAC44  ',
(PID.TID 0000.0001)   47   fields(45,1) = 'TRAC45  ',
(PID.TID 0000.0001)   48   fields(46,1) = 'TRAC46  ',
(PID.TID 0000.0001)   49   fields(47,1) = 'TRAC47  ',
(PID.TID 0000.0001)   50   fields(48,1) = 'TRAC48  ',
(PID.TID 0000.0001)   51   fields(49,1) = 'TRAC49  ',
(PID.TID 0000.0001)   52   fields(50,1) = 'TRAC50  ',
(PID.TID 0000.0001)   53   fields(51,1) = 'TRAC51  ',
(PID.TID 0000.0001)   54   fields(52,1) = 'TRAC52  ',
(PID.TID 0000.0001)   55   fields(53,1) = 'TRAC53  ',
(PID.TID 0000.0001)   56   fields(54,1) = 'TRAC54  ',
(PID.TID 0000.0001)   57   fields(55,1) = 'TRAC55  ',
(PID.TID 0000.0001)   58   fields(56,1) = 'TRAC56  ',
(PID.TID 0000.0001)   59   fields(57,1) = 'TRAC57  ',
(PID.TID 0000.0001)   60   fields(58,1) = 'TRAC58  ',
(PID.TID 0000.0001)   61   fields(59,1) = 'TRAC59  ',
(PID.TID 0000.0001)   62   fields(60,1) = 'TRAC60  ',
(PID.TID 0000.0001)   63   fields(61,1) = 'TRAC61  ',
(PID.TID 0000.0001)   64   fields(62,1) = 'TRAC62  ',
(PID.TID 0000.0001)   65   fields(63,1) = 'TRAC63  ',
(PID.TID 0000.0001)   66   fields(64,1) = 'TRAC64  ',
(PID.TID 0000.0001)   67   fields(65,1) = 'TRAC65  ',
(PID.TID 0000.0001)   68   fields(66,1) = 'TRAC66  ',
(PID.TID 0000.0001)   69   fields(67,1) = 'TRAC67  ',
(PID.TID 0000.0001)   70   fields(68,1) = 'TRAC68  ',
(PID.TID 0000.0001)   71   fields(69,1) = 'TRAC69  ',
(PID.TID 0000.0001)   72   fields(70,1) = 'TRAC70  ',
(PID.TID 0000.0001)   73   fields(71,1) = 'TRAC71  ',
(PID.TID 0000.0001)   74   fields(72,1) = 'TRAC72  ',
(PID.TID 0000.0001)   75   fields(73,1) = 'TRAC73  ',
(PID.TID 0000.0001)   76   fields(74,1) = 'TRAC74  ',
(PID.TID 0000.0001)   77   fields(75,1) = 'TRAC75  ',
(PID.TID 0000.0001)   78   fields(76,1) = 'TRAC76  ',
(PID.TID 0000.0001)   79   fields(77,1) = 'TRAC77  ',
(PID.TID 0000.0001)   80   fields(78,1) = 'TRAC78  ',
(PID.TID 0000.0001)   81   fields(79,1) = 'TRAC79  ',
(PID.TID 0000.0001)   82   fields(80,1) = 'TRAC80  ',
(PID.TID 0000.0001)   83   fields(81,1) = 'TRAC81  ',
(PID.TID 0000.0001)   84   fields(82,1) = 'TRAC82  ',
(PID.TID 0000.0001)   85   fields(83,1) = 'TRAC83  ',
(PID.TID 0000.0001)   86   fields(84,1) = 'TRAC84  ',
(PID.TID 0000.0001)   87   fields(85,1) = 'TRAC85  ',
(PID.TID 0000.0001)   88   fields(86,1) = 'TRAC86  ',
(PID.TID 0000.0001)   89   fields(87,1) = 'TRAC87  ',
(PID.TID 0000.0001)   90   fields(88,1) = 'TRAC88  ',
(PID.TID 0000.0001)   91   fields(89,1) = 'TRAC89  ',
(PID.TID 0000.0001)   92   fields(90,1) = 'TRAC90  ',
(PID.TID 0000.0001)   93   fields(91,1) = 'TRAC91  ',
(PID.TID 0000.0001)   94   fields(92,1) = 'TRAC92  ',
(PID.TID 0000.0001)   95   fields(93,1) = 'TRAC93  ',
(PID.TID 0000.0001)   96   fields(94,1) = 'TRAC94  ',
(PID.TID 0000.0001)   97   fields(95,1) = 'TRAC95  ',
(PID.TID 0000.0001)   98   fields(96,1) = 'TRAC96  ',
(PID.TID 0000.0001)   99   fields(97,1) = 'TRAC97  ',
(PID.TID 0000.0001)  100   fields(98,1) = 'TRAC98  ',
(PID.TID 0000.0001)  101   fields(99,1) = 'TRAC99  ',
(PID.TID 0000.0001)  102   fields(100,1) = 'TRAC0a  ',
(PID.TID 0000.0001)  103   fields(101,1) = 'TRAC0b  ',
(PID.TID 0000.0001)  104   fields(102,1) = 'TRAC0c  ',
(PID.TID 0000.0001)  105   fields(103,1) = 'TRAC0d  ',
(PID.TID 0000.0001)  106   fields(104,1) = 'TRAC0e  ',
(PID.TID 0000.0001)  107   fields(105,1) = 'TRAC0f  ',
(PID.TID 0000.0001)  108   fields(106,1) = 'TRAC0g  ',
(PID.TID 0000.0001)  109   fields(107,1) = 'TRAC0h  ',
(PID.TID 0000.0001)  110   fields(108,1) = 'TRAC0i  ',
(PID.TID 0000.0001)  111   fields(109,1) = 'TRAC0j  ',
(PID.TID 0000.0001)  112   fields(110,1) = 'TRAC0k  ',
(PID.TID 0000.0001)  113   fields(111,1) = 'TRAC0l  ',
(PID.TID 0000.0001)  114   fields(112,1) = 'TRAC0m  ',
(PID.TID 0000.0001)  115   fields(113,1) = 'TRAC0n  ',
(PID.TID 0000.0001)  116   fields(114,1) = 'TRAC01  ',
(PID.TID 0000.0001)  117   fields(115,1) = 'TRAC0o  ',
(PID.TID 0000.0001)  118   fields(116,1) = 'TRAC0q  ',
(PID.TID 0000.0001)  119   fields(117,1) = 'TRAC0r  ',
(PID.TID 0000.0001)  120   fields(118,1) = 'TRAC0s  ',
(PID.TID 0000.0001)  121   fields(119,1) = 'TRAC0t  ',
(PID.TID 0000.0001)  122   fields(120,1) = 'TRAC0u  ',
(PID.TID 0000.0001)  123   fields(121,1) = 'TRAC0v  ',
(PID.TID 0000.0001)  124   fields(122,1) = 'TRAC0w  ',
(PID.TID 0000.0001)  125   fields(123,1) = 'TRAC0x  ',
(PID.TID 0000.0001)  126   fields(124,1) = 'TRAC0y  ',
(PID.TID 0000.0001)  127   fields(125,1) = 'TRAC0z  ',
(PID.TID 0000.0001)  128   fields(126,1) = 'TRAC0A  ',
(PID.TID 0000.0001)  129   fields(127,1) = 'TRAC0B  ',
(PID.TID 0000.0001)  130   fields(128,1) = 'TRAC0C  ',
(PID.TID 0000.0001)  131   fields(129,1) = 'TRAC0D  ',
(PID.TID 0000.0001)  132   fields(130,1) = 'TRAC0E  ',
(PID.TID 0000.0001)  133   fields(131,1) = 'TRAC0F  ',
(PID.TID 0000.0001)  134   fields(132,1) = 'TRAC0G  ',
(PID.TID 0000.0001)  135   fields(133,1) = 'TRAC0H  ',
(PID.TID 0000.0001)  136   fields(134,1) = 'TRAC0I  ',
(PID.TID 0000.0001)  137   fields(135,1) = 'TRAC0J  ',
(PID.TID 0000.0001)  138   fields(136,1) = 'TRAC0K  ',
(PID.TID 0000.0001)  139   fields(137,1) = 'TRAC0L  ',
(PID.TID 0000.0001)  140   fields(138,1) = 'TRAC0M  ',
(PID.TID 0000.0001)  141   fields(139,1) = 'TRAC0N  ',
(PID.TID 0000.0001)  142   fields(140,1) = 'TRAC01  ',
(PID.TID 0000.0001)  143   fields(141,1) = 'TRAC0O  ',
(PID.TID 0000.0001)  144   fields(142,1) = 'TRAC0Q  ',
(PID.TID 0000.0001)  145   fields(143,1) = 'TRAC0R  ',
(PID.TID 0000.0001)  146   fields(144,1) = 'TRAC0S  ',
(PID.TID 0000.0001)  147   fields(145,1) = 'TRAC0T  ',
(PID.TID 0000.0001)  148   fields(146,1) = 'TRAC0U  ',
(PID.TID 0000.0001)  149   fields(147,1) = 'TRAC0V  ',
(PID.TID 0000.0001)  150   fields(148,1) = 'TRAC0W  ',
(PID.TID 0000.0001)  151   fields(149,1) = 'TRAC0X  ',
(PID.TID 0000.0001)  152   fields(150,1) = 'TRAC0Y  ',
(PID.TID 0000.0001)  153   fields(151,1) = 'TRAC0Z  ',
(PID.TID 0000.0001)  154   fields(152,1) = 'TRAC1a  ',
(PID.TID 0000.0001)  155   fields(153,1) = 'TRAC1b  ',
(PID.TID 0000.0001)  156   fields(154,1) = 'TRAC1c  ',
(PID.TID 0000.0001)  157   fields(155,1) = 'TRAC1d  ',
(PID.TID 0000.0001)  158   fields(156,1) = 'TRAC1e  ',
(PID.TID 0000.0001)  159   fields(157,1) = 'TRAC1f  ',
(PID.TID 0000.0001)  160   fields(158,1) = 'TRAC1g  ',
(PID.TID 0000.0001)  161   fields(159,1) = 'TRAC1h  ',
(PID.TID 0000.0001)  162   fields(160,1) = 'TRAC1i  ',
(PID.TID 0000.0001)  163   fields(161,1) = 'TRAC1j  ',
(PID.TID 0000.0001)  164   fields(162,1) = 'TRAC1k  ',
(PID.TID 0000.0001)  165   fields(163,1) = 'TRAC1l  ',
(PID.TID 0000.0001)  166   fields(164,1) = 'TRAC1m  ',
(PID.TID 0000.0001)  167   fields(165,1) = 'TRAC1n  ',
(PID.TID 0000.0001)  168   fields(166,1) = 'TRAC11  ',
(PID.TID 0000.0001)  169   fields(167,1) = 'TRAC1o  ',
(PID.TID 0000.0001)  170   fields(168,1) = 'TRAC1q  ',
(PID.TID 0000.0001)  171   fields(169,1) = 'TRAC1r  ',
(PID.TID 0000.0001)  172   fields(170,1) = 'TRAC1s  ',
(PID.TID 0000.0001)  173   fields(171,1) = 'TRAC1t  ',
(PID.TID 0000.0001)  174   fields(172,1) = 'TRAC1u  ',
(PID.TID 0000.0001)  175   fields(173,1) = 'TRAC1v  ',
(PID.TID 0000.0001)  176   fields(174,1) = 'TRAC1w  ',
(PID.TID 0000.0001)  177   fields(175,1) = 'TRAC1x  ',
(PID.TID 0000.0001)  178   fields(176,1) = 'TRAC1y  ',
(PID.TID 0000.0001)  179   fields(177,1) = 'TRAC1z  ',
(PID.TID 0000.0001)  180   fields(178,1) = 'TRAC1A  ',
(PID.TID 0000.0001)  181   fields(179,1) = 'TRAC1B  ',
(PID.TID 0000.0001)  182   fields(180,1) = 'TRAC1C  ',
(PID.TID 0000.0001)  183   fields(181,1) = 'TRAC1D  ',
(PID.TID 0000.0001)  184   fields(182,1) = 'TRAC1E  ',
(PID.TID 0000.0001)  185   fields(183,1) = 'TRAC1F  ',
(PID.TID 0000.0001)  186   fields(184,1) = 'TRAC1G  ',
(PID.TID 0000.0001)  187   fields(185,1) = 'TRAC1H  ',
(PID.TID 0000.0001)  188   fields(186,1) = 'TRAC1I  ',
(PID.TID 0000.0001)  189   fields(187,1) = 'TRAC1J  ',
(PID.TID 0000.0001)  190   fields(188,1) = 'TRAC1K  ',
(PID.TID 0000.0001)  191   fields(189,1) = 'TRAC1L  ',
(PID.TID 0000.0001)  192   fields(190,1) = 'TRAC1M  ',
(PID.TID 0000.0001)  193   fields(191,1) = 'TRAC1N  ',
(PID.TID 0000.0001)  194   fields(192,1) = 'TRAC11  ',
(PID.TID 0000.0001)  195   fields(193,1) = 'TRAC1O  ',
(PID.TID 0000.0001)  196   fields(194,1) = 'TRAC1Q  ',
(PID.TID 0000.0001)  197   fields(195,1) = 'TRAC1R  ',
(PID.TID 0000.0001)  198   fields(196,1) = 'TRAC1S  ',
(PID.TID 0000.0001)  199   fields(197,1) = 'TRAC1T  ',
(PID.TID 0000.0001)  200   fields(198,1) = 'TRAC1U  ',
(PID.TID 0000.0001)  201   fields(199,1) = 'TRAC1V  ',
(PID.TID 0000.0001)  202   fields(200,1) = 'TRAC1W  ',
(PID.TID 0000.0001)  203   fields(201,1) = 'TRAC1X  ',
(PID.TID 0000.0001)  204   fields(202,1) = 'TRAC1Y  ',
(PID.TID 0000.0001)  205   fields(203,1) = 'TRAC1Z  ',
(PID.TID 0000.0001)  206   fields(204,1) = 'TRAC2a  ',
(PID.TID 0000.0001)  207   fields(205,1) = 'TRAC2b  ',
(PID.TID 0000.0001)  208   fields(206,1) = 'TRAC2c  ',
(PID.TID 0000.0001)  209   fields(207,1) = 'TRAC2d  ',
(PID.TID 0000.0001)  210   fields(208,1) = 'TRAC2e  ',
(PID.TID 0000.0001)  211   fields(209,1) = 'TRAC2f  ',
(PID.TID 0000.0001)  212   fields(210,1) = 'TRAC2g  ',
(PID.TID 0000.0001)  213   fields(211,1) = 'TRAC2h  ',
(PID.TID 0000.0001)  214   fields(212,1) = 'TRAC2i  ',
(PID.TID 0000.0001)  215   fields(213,1) = 'TRAC2j  ',
(PID.TID 0000.0001)  216   fields(214,1) = 'TRAC2k  ',
(PID.TID 0000.0001)  217   fields(215,1) = 'TRAC2l  ',
(PID.TID 0000.0001)  218   fields(216,1) = 'TRAC2m  ',
(PID.TID 0000.0001)  219   fields(217,1) = 'TRAC2n  ',
(PID.TID 0000.0001)  220   fields(218,1) = 'TRAC21  ',
(PID.TID 0000.0001)  221   fields(219,1) = 'TRAC2o  ',
(PID.TID 0000.0001)  222   fields(220,1) = 'TRAC2q  ',
(PID.TID 0000.0001)  223   fields(221,1) = 'TRAC2r  ',
(PID.TID 0000.0001)  224   fields(222,1) = 'TRAC2s  ',
(PID.TID 0000.0001)  225   fields(223,1) = 'TRAC2t  ',
(PID.TID 0000.0001)  226   fields(224,1) = 'TRAC2u  ',
(PID.TID 0000.0001)  227   fields(225,1) = 'TRAC2v  ',
(PID.TID 0000.0001)  228   fields(226,1) = 'TRAC2w  ',
(PID.TID 0000.0001)  229   fields(227,1) = 'TRAC2x  ',
(PID.TID 0000.0001)  230   fields(228,1) = 'TRAC2y  ',
(PID.TID 0000.0001)  231   fields(229,1) = 'TRAC2z  ',
(PID.TID 0000.0001)  232   fields(230,1) = 'TRAC2A  ',
(PID.TID 0000.0001)  233   fields(231,1) = 'TRAC2B  ',
(PID.TID 0000.0001)  234   fields(232,1) = 'TRAC2C  ',
(PID.TID 0000.0001)  235   fields(233,1) = 'TRAC2D  ',
(PID.TID 0000.0001)  236   fields(234,1) = 'PAR01   ',
(PID.TID 0000.0001)  237   fields(235,1) = 'PP      ',
(PID.TID 0000.0001)  238   fields(236,1) = 'Nfix    ',
(PID.TID 0000.0001)  239   fields(237,1) = 'Denit   ',
(PID.TID 0000.0001)  240   filename( 1) = 'gud',
(PID.TID 0000.0001)  241  /
(PID.TID 0000.0001)  242
(PID.TID 0000.0001)  243  &DIAG_STATIS_PARMS
(PID.TID 0000.0001)  244  diagst_mnc=.FALSE.,
(PID.TID 0000.0001)  245      stat_freq(1:3)= 3*3600.,
(PID.TID 0000.0001)  246     stat_phase(1:3)= 3*0.,
(PID.TID 0000.0001)  247  stat_fields(1,1)= 'PP      '
(PID.TID 0000.0001)  248  stat_fields(1,2)= 'Nfix    '
(PID.TID 0000.0001)  249  stat_fields(1,3)= 'Denit   '
(PID.TID 0000.0001)  250     stat_fname(1)= 'statsPP',
(PID.TID 0000.0001)  251     stat_fname(2)= 'statsNfix',
(PID.TID 0000.0001)  252     stat_fname(3)= 'statsDenit',
(PID.TID 0000.0001)  253  /
(PID.TID 0000.0001) // =======================================================
(PID.TID 0000.0001) // Parameter file "data.diagnostics"
(PID.TID 0000.0001) // =======================================================
(PID.TID 0000.0001) > &diagnostics_list
(PID.TID 0000.0001) >#
(PID.TID 0000.0001) >  frequency(1) = 3600.,
(PID.TID 0000.0001) >  fields( 1,1) = 'TRAC01  ',
(PID.TID 0000.0001) >  fields( 2,1) = 'TRAC02  ',
(PID.TID 0000.0001) >  fields( 3,1) = 'TRAC03  ',
(PID.TID 0000.0001) >  fields( 4,1) = 'TRAC04  ',
(PID.TID 0000.0001) >  fields( 5,1) = 'TRAC05  ',
(PID.TID 0000.0001) >  fields( 6,1) = 'TRAC06  ',
(PID.TID 0000.0001) >  fields( 7,1) = 'TRAC07  ',
(PID.TID 0000.0001) >  fields( 8,1) = 'TRAC08  ',
(PID.TID 0000.0001) >  fields( 9,1) = 'TRAC09  ',
(PID.TID 0000.0001) >  fields(10,1) = 'TRAC10  ',
(PID.TID 0000.0001) >  fields(11,1) = 'TRAC11  ',
(PID.TID 0000.0001) >  fields(12,1) = 'TRAC12  ',
(PID.TID 0000.0001) >  fields(13,1) = 'TRAC13  ',
(PID.TID 0000.0001) >  fields(14,1) = 'TRAC14  ',
(PID.TID 0000.0001) >  fields(15,1) = 'TRAC15  ',
(PID.TID 0000.0001) >  fields(16,1) = 'TRAC16  ',
(PID.TID 0000.0001) >  fields(17,1) = 'TRAC17  ',
(PID.TID 0000.0001) >  fields(18,1) = 'TRAC18  ',
(PID.TID 0000.0001) >  fields(19,1) = 'TRAC19  ',
(PID.TID 0000.0001) >  fields(20,1) = 'TRAC20  ',
(PID.TID 0000.0001) >  fields(21,1) = 'TRAC21  ',
(PID.TID 0000.0001) >  fields(22,1) = 'TRAC22  ',
(PID.TID 0000.0001) >  fields(23,1) = 'TRAC23  ',
(PID.TID 0000.0001) >  fields(24,1) = 'TRAC24  ',
(PID.TID 0000.0001) >  fields(25,1) = 'TRAC25  ',
(PID.TID 0000.0001) >  fields(26,1) = 'TRAC26  ',
(PID.TID 0000.0001) >  fields(27,1) = 'TRAC27  ',
(PID.TID 0000.0001) >  fields(28,1) = 'TRAC28  ',
(PID.TID 0000.0001) >  fields(29,1) = 'TRAC29  ',
(PID.TID 0000.0001) >  fields(30,1) = 'TRAC30  ',
(PID.TID 0000.0001) >  fields(31,1) = 'TRAC31  ',
(PID.TID 0000.0001) >  fields(32,1) = 'TRAC32  ',
(PID.TID 0000.0001) >  fields(33,1) = 'TRAC33  ',
(PID.TID 0000.0001) >  fields(34,1) = 'TRAC34  ',
(PID.TID 0000.0001) >  fields(35,1) = 'TRAC35  ',
(PID.TID 0000.0001) >  fields(36,1) = 'TRAC36  ',
(PID.TID 0000.0001) >  fields(37,1) = 'TRAC37  ',
(PID.TID 0000.0001) >  fields(38,1) = 'TRAC38  ',
(PID.TID 0000.0001) >  fields(39,1) = 'TRAC39  ',
(PID.TID 0000.0001) >  fields(40,1) = 'TRAC40  ',
(PID.TID 0000.0001) >  fields(41,1) = 'TRAC41  ',
(PID.TID 0000.0001) >  fields(42,1) = 'TRAC42  ',
(PID.TID 0000.0001) >  fields(43,1) = 'TRAC43  ',
(PID.TID 0000.0001) >  fields(44,1) = 'TRAC44  ',
(PID.TID 0000.0001) >  fields(45,1) = 'TRAC45  ',
(PID.TID 0000.0001) >  fields(46,1) = 'TRAC46  ',
(PID.TID 0000.0001) >  fields(47,1) = 'TRAC47  ',
(PID.TID 0000.0001) >  fields(48,1) = 'TRAC48  ',
(PID.TID 0000.0001) >  fields(49,1) = 'TRAC49  ',
(PID.TID 0000.0001) >  fields(50,1) = 'TRAC50  ',
(PID.TID 0000.0001) >  fields(51,1) = 'TRAC51  ',
(PID.TID 0000.0001) >  fields(52,1) = 'TRAC52  ',
(PID.TID 0000.0001) >  fields(53,1) = 'TRAC53  ',
(PID.TID 0000.0001) >  fields(54,1) = 'TRAC54  ',
(PID.TID 0000.0001) >  fields(55,1) = 'TRAC55  ',
(PID.TID 0000.0001) >  fields(56,1) = 'TRAC56  ',
(PID.TID 0000.0001) >  fields(57,1) = 'TRAC57  ',
(PID.TID 0000.0001) >  fields(58,1) = 'TRAC58  ',
(PID.TID 0000.0001) >  fields(59,1) = 'TRAC59  ',
(PID.TID 0000.0001) >  fields(60,1) = 'TRAC60  ',
(PID.TID 0000.0001) >  fields(61,1) = 'TRAC61  ',
(PID.TID 0000.0001) >  fields(62,1) = 'TRAC62  ',
(PID.TID 0000.0001) >  fields(63,1) = 'TRAC63  ',
(PID.TID 0000.0001) >  fields(64,1) = 'TRAC64  ',
(PID.TID 0000.0001) >  fields(65,1) = 'TRAC65  ',
(PID.TID 0000.0001) >  fields(66,1) = 'TRAC66  ',
(PID.TID 0000.0001) >  fields(67,1) = 'TRAC67  ',
(PID.TID 0000.0001) >  fields(68,1) = 'TRAC68  ',
(PID.TID 0000.0001) >  fields(69,1) = 'TRAC69  ',
(PID.TID 0000.0001) >  fields(70,1) = 'TRAC70  ',
(PID.TID 0000.0001) >  fields(71,1) = 'TRAC71  ',
(PID.TID 0000.0001) >  fields(72,1) = 'TRAC72  ',
(PID.TID 0000.0001) >  fields(73,1) = 'TRAC73  ',
(PID.TID 0000.0001) >  fields(74,1) = 'TRAC74  ',
(PID.TID 0000.0001) >  fields(75,1) = 'TRAC75  ',
(PID.TID 0000.0001) >  fields(76,1) = 'TRAC76  ',
(PID.TID 0000.0001) >  fields(77,1) = 'TRAC77  ',
(PID.TID 0000.0001) >  fields(78,1) = 'TRAC78  ',
(PID.TID 0000.0001) >  fields(79,1) = 'TRAC79  ',
(PID.TID 0000.0001) >  fields(80,1) = 'TRAC80  ',
(PID.TID 0000.0001) >  fields(81,1) = 'TRAC81  ',
(PID.TID 0000.0001) >  fields(82,1) = 'TRAC82  ',
(PID.TID 0000.0001) >  fields(83,1) = 'TRAC83  ',
(PID.TID 0000.0001) >  fields(84,1) = 'TRAC84  ',
(PID.TID 0000.0001) >  fields(85,1) = 'TRAC85  ',
(PID.TID 0000.0001) >  fields(86,1) = 'TRAC86  ',
(PID.TID 0000.0001) >  fields(87,1) = 'TRAC87  ',
(PID.TID 0000.0001) >  fields(88,1) = 'TRAC88  ',
(PID.TID 0000.0001) >  fields(89,1) = 'TRAC89  ',
(PID.TID 0000.0001) >  fields(90,1) = 'TRAC90  ',
(PID.TID 0000.0001) >  fields(91,1) = 'TRAC91  ',
(PID.TID 0000.0001) >  fields(92,1) = 'TRAC92  ',
(PID.TID 0000.0001) >  fields(93,1) = 'TRAC93  ',
(PID.TID 0000.0001) >  fields(94,1) = 'TRAC94  ',
(PID.TID 0000.0001) >  fields(95,1) = 'TRAC95  ',
(PID.TID 0000.0001) >  fields(96,1) = 'TRAC96  ',
(PID.TID 0000.0001) >  fields(97,1) = 'TRAC97  ',
(PID.TID 0000.0001) >  fields(98,1) = 'TRAC98  ',
(PID.TID 0000.0001) >  fields(99,1) = 'TRAC99  ',
(PID.TID 0000.0001) >  fields(100,1) = 'TRAC0a  ',
(PID.TID 0000.0001) >  fields(101,1) = 'TRAC0b  ',
(PID.TID 0000.0001) >  fields(102,1) = 'TRAC0c  ',
(PID.TID 0000.0001) >  fields(103,1) = 'TRAC0d  ',
(PID.TID 0000.0001) >  fields(104,1) = 'TRAC0e  ',
(PID.TID 0000.0001) >  fields(105,1) = 'TRAC0f  ',
(PID.TID 0000.0001) >  fields(106,1) = 'TRAC0g  ',
(PID.TID 0000.0001) >  fields(107,1) = 'TRAC0h  ',
(PID.TID 0000.0001) >  fields(108,1) = 'TRAC0i  ',
(PID.TID 0000.0001) >  fields(109,1) = 'TRAC0j  ',
(PID.TID 0000.0001) >  fields(110,1) = 'TRAC0k  ',
(PID.TID 0000.0001) >  fields(111,1) = 'TRAC0l  ',
(PID.TID 0000.0001) >  fields(112,1) = 'TRAC0m  ',
(PID.TID 0000.0001) >  fields(113,1) = 'TRAC0n  ',
(PID.TID 0000.0001) >  fields(114,1) = 'TRAC01  ',
(PID.TID 0000.0001) >  fields(115,1) = 'TRAC0o  ',
(PID.TID 0000.0001) >  fields(116,1) = 'TRAC0q  ',
(PID.TID 0000.0001) >  fields(117,1) = 'TRAC0r  ',
(PID.TID 0000.0001) >  fields(118,1) = 'TRAC0s  ',
(PID.TID 0000.0001) >  fields(119,1) = 'TRAC0t  ',
(PID.TID 0000.0001) >  fields(120,1) = 'TRAC0u  ',
(PID.TID 0000.0001) >  fields(121,1) = 'TRAC0v  ',
(PID.TID 0000.0001) >  fields(122,1) = 'TRAC0w  ',
(PID.TID 0000.0001) >  fields(123,1) = 'TRAC0x  ',
(PID.TID 0000.0001) >  fields(124,1) = 'TRAC0y  ',
(PID.TID 0000.0001) >  fields(125,1) = 'TRAC0z  ',
(PID.TID 0000.0001) >  fields(126,1) = 'TRAC0A  ',
(PID.TID 0000.0001) >  fields(127,1) = 'TRAC0B  ',
(PID.TID 0000.0001) >  fields(128,1) = 'TRAC0C  ',
(PID.TID 0000.0001) >  fields(129,1) = 'TRAC0D  ',
(PID.TID 0000.0001) >  fields(130,1) = 'TRAC0E  ',
(PID.TID 0000.0001) >  fields(131,1) = 'TRAC0F  ',
(PID.TID 0000.0001) >  fields(132,1) = 'TRAC0G  ',
(PID.TID 0000.0001) >  fields(133,1) = 'TRAC0H  ',
(PID.TID 0000.0001) >  fields(134,1) = 'TRAC0I  ',
(PID.TID 0000.0001) >  fields(135,1) = 'TRAC0J  ',
(PID.TID 0000.0001) >  fields(136,1) = 'TRAC0K  ',
(PID.TID 0000.0001) >  fields(137,1) = 'TRAC0L  ',
(PID.TID 0000.0001) >  fields(138,1) = 'TRAC0M  ',
(PID.TID 0000.0001) >  fields(139,1) = 'TRAC0N  ',
(PID.TID 0000.0001) >  fields(140,1) = 'TRAC01  ',
(PID.TID 0000.0001) >  fields(141,1) = 'TRAC0O  ',
(PID.TID 0000.0001) >  fields(142,1) = 'TRAC0Q  ',
(PID.TID 0000.0001) >  fields(143,1) = 'TRAC0R  ',
(PID.TID 0000.0001) >  fields(144,1) = 'TRAC0S  ',
(PID.TID 0000.0001) >  fields(145,1) = 'TRAC0T  ',
(PID.TID 0000.0001) >  fields(146,1) = 'TRAC0U  ',
(PID.TID 0000.0001) >  fields(147,1) = 'TRAC0V  ',
(PID.TID 0000.0001) >  fields(148,1) = 'TRAC0W  ',
(PID.TID 0000.0001) >  fields(149,1) = 'TRAC0X  ',
(PID.TID 0000.0001) >  fields(150,1) = 'TRAC0Y  ',
(PID.TID 0000.0001) >  fields(151,1) = 'TRAC0Z  ',
(PID.TID 0000.0001) >  fields(152,1) = 'TRAC1a  ',
(PID.TID 0000.0001) >  fields(153,1) = 'TRAC1b  ',
(PID.TID 0000.0001) >  fields(154,1) = 'TRAC1c  ',
(PID.TID 0000.0001) >  fields(155,1) = 'TRAC1d  ',
(PID.TID 0000.0001) >  fields(156,1) = 'TRAC1e  ',
(PID.TID 0000.0001) >  fields(157,1) = 'TRAC1f  ',
(PID.TID 0000.0001) >  fields(158,1) = 'TRAC1g  ',
(PID.TID 0000.0001) >  fields(159,1) = 'TRAC1h  ',
(PID.TID 0000.0001) >  fields(160,1) = 'TRAC1i  ',
(PID.TID 0000.0001) >  fields(161,1) = 'TRAC1j  ',
(PID.TID 0000.0001) >  fields(162,1) = 'TRAC1k  ',
(PID.TID 0000.0001) >  fields(163,1) = 'TRAC1l  ',
(PID.TID 0000.0001) >  fields(164,1) = 'TRAC1m  ',
(PID.TID 0000.0001) >  fields(165,1) = 'TRAC1n  ',
(PID.TID 0000.0001) >  fields(166,1) = 'TRAC11  ',
(PID.TID 0000.0001) >  fields(167,1) = 'TRAC1o  ',
(PID.TID 0000.0001) >  fields(168,1) = 'TRAC1q  ',
(PID.TID 0000.0001) >  fields(169,1) = 'TRAC1r  ',
(PID.TID 0000.0001) >  fields(170,1) = 'TRAC1s  ',
(PID.TID 0000.0001) >  fields(171,1) = 'TRAC1t  ',
(PID.TID 0000.0001) >  fields(172,1) = 'TRAC1u  ',
(PID.TID 0000.0001) >  fields(173,1) = 'TRAC1v  ',
(PID.TID 0000.0001) >  fields(174,1) = 'TRAC1w  ',
(PID.TID 0000.0001) >  fields(175,1) = 'TRAC1x  ',
(PID.TID 0000.0001) >  fields(176,1) = 'TRAC1y  ',
(PID.TID 0000.0001) >  fields(177,1) = 'TRAC1z  ',
(PID.TID 0000.0001) >  fields(178,1) = 'TRAC1A  ',
(PID.TID 0000.0001) >  fields(179,1) = 'TRAC1B  ',
(PID.TID 0000.0001) >  fields(180,1) = 'TRAC1C  ',
(PID.TID 0000.0001) >  fields(181,1) = 'TRAC1D  ',
(PID.TID 0000.0001) >  fields(182,1) = 'TRAC1E  ',
(PID.TID 0000.0001) >  fields(183,1) = 'TRAC1F  ',
(PID.TID 0000.0001) >  fields(184,1) = 'TRAC1G  ',
(PID.TID 0000.0001) >  fields(185,1) = 'TRAC1H  ',
(PID.TID 0000.0001) >  fields(186,1) = 'TRAC1I  ',
(PID.TID 0000.0001) >  fields(187,1) = 'TRAC1J  ',
(PID.TID 0000.0001) >  fields(188,1) = 'TRAC1K  ',
(PID.TID 0000.0001) >  fields(189,1) = 'TRAC1L  ',
(PID.TID 0000.0001) >  fields(190,1) = 'TRAC1M  ',
(PID.TID 0000.0001) >  fields(191,1) = 'TRAC1N  ',
(PID.TID 0000.0001) >  fields(192,1) = 'TRAC11  ',
(PID.TID 0000.0001) >  fields(193,1) = 'TRAC1O  ',
(PID.TID 0000.0001) >  fields(194,1) = 'TRAC1Q  ',
(PID.TID 0000.0001) >  fields(195,1) = 'TRAC1R  ',
(PID.TID 0000.0001) >  fields(196,1) = 'TRAC1S  ',
(PID.TID 0000.0001) >  fields(197,1) = 'TRAC1T  ',
(PID.TID 0000.0001) >  fields(198,1) = 'TRAC1U  ',
(PID.TID 0000.0001) >  fields(199,1) = 'TRAC1V  ',
(PID.TID 0000.0001) >  fields(200,1) = 'TRAC1W  ',
(PID.TID 0000.0001) >  fields(201,1) = 'TRAC1X  ',
(PID.TID 0000.0001) >  fields(202,1) = 'TRAC1Y  ',
(PID.TID 0000.0001) >  fields(203,1) = 'TRAC1Z  ',
(PID.TID 0000.0001) >  fields(204,1) = 'TRAC2a  ',
(PID.TID 0000.0001) >  fields(205,1) = 'TRAC2b  ',
(PID.TID 0000.0001) >  fields(206,1) = 'TRAC2c  ',
(PID.TID 0000.0001) >  fields(207,1) = 'TRAC2d  ',
(PID.TID 0000.0001) >  fields(208,1) = 'TRAC2e  ',
(PID.TID 0000.0001) >  fields(209,1) = 'TRAC2f  ',
(PID.TID 0000.0001) >  fields(210,1) = 'TRAC2g  ',
(PID.TID 0000.0001) >  fields(211,1) = 'TRAC2h  ',
(PID.TID 0000.0001) >  fields(212,1) = 'TRAC2i  ',
(PID.TID 0000.0001) >  fields(213,1) = 'TRAC2j  ',
(PID.TID 0000.0001) >  fields(214,1) = 'TRAC2k  ',
(PID.TID 0000.0001) >  fields(215,1) = 'TRAC2l  ',
(PID.TID 0000.0001) >  fields(216,1) = 'TRAC2m  ',
(PID.TID 0000.0001) >  fields(217,1) = 'TRAC2n  ',
(PID.TID 0000.0001) >  fields(218,1) = 'TRAC21  ',
(PID.TID 0000.0001) >  fields(219,1) = 'TRAC2o  ',
(PID.TID 0000.0001) >  fields(220,1) = 'TRAC2q  ',
(PID.TID 0000.0001) >  fields(221,1) = 'TRAC2r  ',
(PID.TID 0000.0001) >  fields(222,1) = 'TRAC2s  ',
(PID.TID 0000.0001) >  fields(223,1) = 'TRAC2t  ',
(PID.TID 0000.0001) >  fields(224,1) = 'TRAC2u  ',
(PID.TID 0000.0001) >  fields(225,1) = 'TRAC2v  ',
(PID.TID 0000.0001) >  fields(226,1) = 'TRAC2w  ',
(PID.TID 0000.0001) >  fields(227,1) = 'TRAC2x  ',
(PID.TID 0000.0001) >  fields(228,1) = 'TRAC2y  ',
(PID.TID 0000.0001) >  fields(229,1) = 'TRAC2z  ',
(PID.TID 0000.0001) >  fields(230,1) = 'TRAC2A  ',
(PID.TID 0000.0001) >  fields(231,1) = 'TRAC2B  ',
(PID.TID 0000.0001) >  fields(232,1) = 'TRAC2C  ',
(PID.TID 0000.0001) >  fields(233,1) = 'TRAC2D  ',
(PID.TID 0000.0001) >  fields(234,1) = 'PAR01   ',
(PID.TID 0000.0001) >  fields(235,1) = 'PP      ',
(PID.TID 0000.0001) >  fields(236,1) = 'Nfix    ',
(PID.TID 0000.0001) >  fields(237,1) = 'Denit   ',
(PID.TID 0000.0001) >  filename( 1) = 'gud',
(PID.TID 0000.0001) >#
(PID.TID 0000.0001) > /
(PID.TID 0000.0001) >
(PID.TID 0000.0001) ># Parameter for Diagnostics of per level statistics:
(PID.TID 0000.0001) >#-----------------
(PID.TID 0000.0001) ># for each output-stream:
(PID.TID 0000.0001) >#  stat_fname(n) : prefix of the output file name (only 8.c long) for
(PID.TID 0000.0001) >#outp.stream n
(PID.TID 0000.0001) >#  stat_freq(n):< 0 : write snap-shot output every |stat_freq| seconds
(PID.TID 0000.0001) >#               > 0 : write time-average output every stat_freq seconds
(PID.TID 0000.0001) >#  stat_phase(n)    : write at time = stat_phase + multiple of |stat_freq|
(PID.TID 0000.0001) >#  stat_region(:,n) : list of "regions" (default: 1 region only=global)
(PID.TID 0000.0001) >#  stat_fields(:,n) : list of diagnostics fields (8.c) (see
(PID.TID 0000.0001) >#"available_diagnostics.log"
(PID.TID 0000.0001) >#                 file for the list of all available diag. in this particular
(PID.TID 0000.0001) >#config)
(PID.TID 0000.0001) >#-----------------
(PID.TID 0000.0001) > &DIAG_STATIS_PARMS
(PID.TID 0000.0001) > diagst_mnc=.FALSE.,
(PID.TID 0000.0001) >     stat_freq(1:3)= 3*3600.,
(PID.TID 0000.0001) >    stat_phase(1:3)= 3*0.,
(PID.TID 0000.0001) > stat_fields(1,1)= 'PP      '
(PID.TID 0000.0001) > stat_fields(1,2)= 'Nfix    '
(PID.TID 0000.0001) > stat_fields(1,3)= 'Denit   '
(PID.TID 0000.0001) >    stat_fname(1)= 'statsPP',
(PID.TID 0000.0001) >    stat_fname(2)= 'statsNfix',
(PID.TID 0000.0001) >    stat_fname(3)= 'statsDenit',
(PID.TID 0000.0001) > /
(PID.TID 0000.0001) 
(PID.TID 0000.0001) S/R DIAGNOSTICS_READPARMS, read namelist "diagnostics_list": start
(PID.TID 0000.0001) S/R DIAGNOSTICS_READPARMS, read namelist "diagnostics_list": OK
(PID.TID 0000.0001) S/R DIAGNOSTICS_READPARMS, read namelist "DIAG_STATIS_PARMS": start
(PID.TID 0000.0001) S/R DIAGNOSTICS_READPARMS, read namelist "DIAG_STATIS_PARMS": OK
(PID.TID 0000.0001)  DIAGNOSTICS_READPARMS: global parameter summary:
(PID.TID 0000.0001)  dumpAtLast = /* always write time-ave diags at the end */
(PID.TID 0000.0001)                   F
(PID.TID 0000.0001)     ;
(PID.TID 0000.0001)  diag_mnc =   /* write NetCDF output files */
(PID.TID 0000.0001)                   T
(PID.TID 0000.0001)     ;
(PID.TID 0000.0001)  useMissingValue = /* put MissingValue where mask = 0 */
(PID.TID 0000.0001)                   F
(PID.TID 0000.0001)     ;
(PID.TID 0000.0001)  diagCG_maxIters = /* max number of iters in diag_cg2d */
(PID.TID 0000.0001)                     300
(PID.TID 0000.0001)     ;
(PID.TID 0000.0001)  diagCG_resTarget = /* residual target for diag_cg2d */
(PID.TID 0000.0001)                 1.000000000000000E-07
(PID.TID 0000.0001)     ;
(PID.TID 0000.0001)  diagCG_pcOffDFac = /* preconditioner off-diagonal factor */
(PID.TID 0000.0001)                 9.611687812379854E-01
(PID.TID 0000.0001)     ;
(PID.TID 0000.0001) -----------------------------------------------------
(PID.TID 0000.0001)  DIAGNOSTICS_READPARMS: active diagnostics summary:
(PID.TID 0000.0001) -----------------------------------------------------
(PID.TID 0000.0001) Creating Output Stream: gud
(PID.TID 0000.0001) Output Frequency:       3600.000000 ; Phase:           0.000000
(PID.TID 0000.0001)  Averaging Freq.:       3600.000000 , Phase:           0.000000 , Cycle:   1
(PID.TID 0000.0001)  missing value: -9.990000000000E+02
(PID.TID 0000.0001)  Levels:    will be set later
(PID.TID 0000.0001)  Fields:    TRAC01   TRAC02   TRAC03   TRAC04   TRAC05   TRAC06   TRAC07   TRAC08   TRAC09   TRAC10
(PID.TID 0000.0001)  Fields:    TRAC11   TRAC12   TRAC13   TRAC14   TRAC15   TRAC16   TRAC17   TRAC18   TRAC19   TRAC20
(PID.TID 0000.0001)  Fields:    TRAC21   TRAC22   TRAC23   TRAC24   TRAC25   TRAC26   TRAC27   TRAC28   TRAC29   TRAC30
(PID.TID 0000.0001)  Fields:    TRAC31   TRAC32   TRAC33   TRAC34   TRAC35   TRAC36   TRAC37   TRAC38   TRAC39   TRAC40
(PID.TID 0000.0001)  Fields:    TRAC41   TRAC42   TRAC43   TRAC44   TRAC45   TRAC46   TRAC47   TRAC48   TRAC49   TRAC50
(PID.TID 0000.0001)  Fields:    TRAC51   TRAC52   TRAC53   TRAC54   TRAC55   TRAC56   TRAC57   TRAC58   TRAC59   TRAC60
(PID.TID 0000.0001)  Fields:    TRAC61   TRAC62   TRAC63   TRAC64   TRAC65   TRAC66   TRAC67   TRAC68   TRAC69   TRAC70
(PID.TID 0000.0001)  Fields:    TRAC71   TRAC72   TRAC73   TRAC74   TRAC75   TRAC76   TRAC77   TRAC78   TRAC79   TRAC80
(PID.TID 0000.0001)  Fields:    TRAC81   TRAC82   TRAC83   TRAC84   TRAC85   TRAC86   TRAC87   TRAC88   TRAC89   TRAC90
(PID.TID 0000.0001)  Fields:    TRAC91   TRAC92   TRAC93   TRAC94   TRAC95   TRAC96   TRAC97   TRAC98   TRAC99   TRAC0a
(PID.TID 0000.0001)  Fields:    TRAC0b   TRAC0c   TRAC0d   TRAC0e   TRAC0f   TRAC0g   TRAC0h   TRAC0i   TRAC0j   TRAC0k
(PID.TID 0000.0001)  Fields:    TRAC0l   TRAC0m   TRAC0n   TRAC01   TRAC0o   TRAC0q   TRAC0r   TRAC0s   TRAC0t   TRAC0u
(PID.TID 0000.0001)  Fields:    TRAC0v   TRAC0w   TRAC0x   TRAC0y   TRAC0z   TRAC0A   TRAC0B   TRAC0C   TRAC0D   TRAC0E
(PID.TID 0000.0001)  Fields:    TRAC0F   TRAC0G   TRAC0H   TRAC0I   TRAC0J   TRAC0K   TRAC0L   TRAC0M   TRAC0N   TRAC01
(PID.TID 0000.0001)  Fields:    TRAC0O   TRAC0Q   TRAC0R   TRAC0S   TRAC0T   TRAC0U   TRAC0V   TRAC0W   TRAC0X   TRAC0Y
(PID.TID 0000.0001)  Fields:    TRAC0Z   TRAC1a   TRAC1b   TRAC1c   TRAC1d   TRAC1e   TRAC1f   TRAC1g   TRAC1h   TRAC1i
(PID.TID 0000.0001)  Fields:    TRAC1j   TRAC1k   TRAC1l   TRAC1m   TRAC1n   TRAC11   TRAC1o   TRAC1q   TRAC1r   TRAC1s
(PID.TID 0000.0001)  Fields:    TRAC1t   TRAC1u   TRAC1v   TRAC1w   TRAC1x   TRAC1y   TRAC1z   TRAC1A   TRAC1B   TRAC1C
(PID.TID 0000.0001)  Fields:    TRAC1D   TRAC1E   TRAC1F   TRAC1G   TRAC1H   TRAC1I   TRAC1J   TRAC1K   TRAC1L   TRAC1M
(PID.TID 0000.0001)  Fields:    TRAC1N   TRAC11   TRAC1O   TRAC1Q   TRAC1R   TRAC1S   TRAC1T   TRAC1U   TRAC1V   TRAC1W
(PID.TID 0000.0001)  Fields:    TRAC1X   TRAC1Y   TRAC1Z   TRAC2a   TRAC2b   TRAC2c   TRAC2d   TRAC2e   TRAC2f   TRAC2g
(PID.TID 0000.0001)  Fields:    TRAC2h   TRAC2i   TRAC2j   TRAC2k   TRAC2l   TRAC2m   TRAC2n   TRAC21   TRAC2o   TRAC2q
(PID.TID 0000.0001)  Fields:    TRAC2r   TRAC2s   TRAC2t   TRAC2u   TRAC2v   TRAC2w   TRAC2x   TRAC2y   TRAC2z   TRAC2A
(PID.TID 0000.0001)  Fields:    TRAC2B   TRAC2C   TRAC2D   PAR01    PP       Nfix     Denit
(PID.TID 0000.0001) -----------------------------------------------------
(PID.TID 0000.0001)  DIAGNOSTICS_READPARMS: statistics diags. summary:
(PID.TID 0000.0001) Creating Stats. Output Stream: statsPP
(PID.TID 0000.0001) Output Frequency:       3600.000000 ; Phase:           0.000000
(PID.TID 0000.0001)  Regions:   0
(PID.TID 0000.0001)  Fields:    PP
(PID.TID 0000.0001) Creating Stats. Output Stream: statsNfix
(PID.TID 0000.0001) Output Frequency:       3600.000000 ; Phase:           0.000000
(PID.TID 0000.0001)  Regions:   0
(PID.TID 0000.0001)  Fields:    Nfix
(PID.TID 0000.0001) Creating Stats. Output Stream: statsDenit
(PID.TID 0000.0001) Output Frequency:       3600.000000 ; Phase:           0.000000
(PID.TID 0000.0001)  Regions:   0
(PID.TID 0000.0001)  Fields:    Denit
(PID.TID 0000.0001) -----------------------------------------------------
(PID.TID 0000.0001) 
(PID.TID 0000.0001) SET_PARMS: done
(PID.TID 0000.0001) Enter INI_VERTICAL_GRID: setInterFDr=    T ; setCenterDr=    F
(PID.TID 0000.0001) %MON XC_max                       =   5.0000000000000000E-01
(PID.TID 0000.0001) %MON XC_min                       =   5.0000000000000000E-01
(PID.TID 0000.0001) %MON XC_mean                      =   5.0000000000000000E-01
(PID.TID 0000.0001) %MON XC_sd                        =   0.0000000000000000E+00
(PID.TID 0000.0001) %MON XG_max                       =   0.0000000000000000E+00
(PID.TID 0000.0001) %MON XG_min                       =   0.0000000000000000E+00
(PID.TID 0000.0001) %MON XG_mean                      =   0.0000000000000000E+00
(PID.TID 0000.0001) %MON XG_sd                        =   0.0000000000000000E+00
(PID.TID 0000.0001) %MON DXC_max                      =   7.9297382804168723E+04
(PID.TID 0000.0001) %MON DXC_min                      =   7.9297382804168723E+04
(PID.TID 0000.0001) %MON DXC_mean                     =   7.9297382804168723E+04
(PID.TID 0000.0001) %MON DXC_sd                       =   0.0000000000000000E+00
(PID.TID 0000.0001) %MON DXF_max                      =   7.9297382804168723E+04
(PID.TID 0000.0001) %MON DXF_min                      =   7.9297382804168723E+04
(PID.TID 0000.0001) %MON DXF_mean                     =   7.9297382804168723E+04
(PID.TID 0000.0001) %MON DXF_sd                       =   0.0000000000000000E+00
(PID.TID 0000.0001) %MON DXG_max                      =   7.8614345322413312E+04
(PID.TID 0000.0001) %MON DXG_min                      =   7.8614345322413312E+04
(PID.TID 0000.0001) %MON DXG_mean                     =   7.8614345322413312E+04
(PID.TID 0000.0001) %MON DXG_sd                       =   0.0000000000000000E+00
(PID.TID 0000.0001) %MON DXV_max                      =   7.8614345322413312E+04
(PID.TID 0000.0001) %MON DXV_min                      =   7.8614345322413312E+04
(PID.TID 0000.0001) %MON DXV_mean                     =   7.8614345322413312E+04
(PID.TID 0000.0001) %MON DXV_sd                       =   0.0000000000000000E+00
(PID.TID 0000.0001) %MON YC_max                       =  -4.4500000000000000E+01
(PID.TID 0000.0001) %MON YC_min                       =  -4.4500000000000000E+01
(PID.TID 0000.0001) %MON YC_mean                      =  -4.4500000000000000E+01
(PID.TID 0000.0001) %MON YC_sd                        =   0.0000000000000000E+00
(PID.TID 0000.0001) %MON YG_max                       =  -4.5000000000000000E+01
(PID.TID 0000.0001) %MON YG_min                       =  -4.5000000000000000E+01
(PID.TID 0000.0001) %MON YG_mean                      =  -4.5000000000000000E+01
(PID.TID 0000.0001) %MON YG_sd                        =   0.0000000000000000E+00
(PID.TID 0000.0001) %MON DYC_max                      =   1.1117747335203880E+05
(PID.TID 0000.0001) %MON DYC_min                      =   1.1117747335203880E+05
(PID.TID 0000.0001) %MON DYC_mean                     =   1.1117747335203880E+05
(PID.TID 0000.0001) %MON DYC_sd                       =   0.0000000000000000E+00
(PID.TID 0000.0001) %MON DYF_max                      =   1.1117747335203880E+05
(PID.TID 0000.0001) %MON DYF_min                      =   1.1117747335203880E+05
(PID.TID 0000.0001) %MON DYF_mean                     =   1.1117747335203880E+05
(PID.TID 0000.0001) %MON DYF_sd                       =   0.0000000000000000E+00
(PID.TID 0000.0001) %MON DYG_max                      =   1.1117747335203880E+05
(PID.TID 0000.0001) %MON DYG_min                      =   1.1117747335203880E+05
(PID.TID 0000.0001) %MON DYG_mean                     =   1.1117747335203880E+05
(PID.TID 0000.0001) %MON DYG_sd                       =   0.0000000000000000E+00
(PID.TID 0000.0001) %MON DYU_max                      =   1.1117747335203880E+05
(PID.TID 0000.0001) %MON DYU_min                      =   1.1117747335203880E+05
(PID.TID 0000.0001) %MON DYU_mean                     =   1.1117747335203880E+05
(PID.TID 0000.0001) %MON DYU_sd                       =   0.0000000000000000E+00
(PID.TID 0000.0001) %MON RA_max                       =   8.8159707668415375E+09
(PID.TID 0000.0001) %MON RA_min                       =   8.8159707668415375E+09
(PID.TID 0000.0001) %MON RA_mean                      =   8.8159707668415375E+09
(PID.TID 0000.0001) %MON RA_sd                        =   0.0000000000000000E+00
(PID.TID 0000.0001) %MON RAW_max                      =   8.8159707668415375E+09
(PID.TID 0000.0001) %MON RAW_min                      =   8.8159707668415375E+09
(PID.TID 0000.0001) %MON RAW_mean                     =   8.8159707668415375E+09
(PID.TID 0000.0001) %MON RAW_sd                       =   0.0000000000000000E+00
(PID.TID 0000.0001) %MON RAS_max                      =   8.7400333492513199E+09
(PID.TID 0000.0001) %MON RAS_min                      =   8.7400333492513199E+09
(PID.TID 0000.0001) %MON RAS_mean                     =   8.7400333492513199E+09
(PID.TID 0000.0001) %MON RAS_sd                       =   0.0000000000000000E+00
(PID.TID 0000.0001) %MON RAZ_max                      =   8.7400333492513199E+09
(PID.TID 0000.0001) %MON RAZ_min                      =   8.7400333492513199E+09
(PID.TID 0000.0001) %MON RAZ_mean                     =   8.7400333492513199E+09
(PID.TID 0000.0001) %MON RAZ_sd                       =   0.0000000000000000E+00
(PID.TID 0000.0001) %MON AngleCS_max                  =   1.0000000000000000E+00
(PID.TID 0000.0001) %MON AngleCS_min                  =   1.0000000000000000E+00
(PID.TID 0000.0001) %MON AngleCS_mean                 =   1.0000000000000000E+00
(PID.TID 0000.0001) %MON AngleCS_sd                   =   0.0000000000000000E+00
(PID.TID 0000.0001) %MON AngleSN_max                  =   0.0000000000000000E+00
(PID.TID 0000.0001) %MON AngleSN_min                  =   0.0000000000000000E+00
(PID.TID 0000.0001) %MON AngleSN_mean                 =   0.0000000000000000E+00
(PID.TID 0000.0001) %MON AngleSN_sd                   =   0.0000000000000000E+00
(PID.TID 0000.0001)  MDS_READ_FIELD: opening global file: ../input/input/bathyneg.bin
(PID.TID 0000.0001) // =======================================================
(PID.TID 0000.0001) // Field Model R_low (ini_masks_etc)
(PID.TID 0000.0001) // CMIN =         -3.495000000000000E+03
(PID.TID 0000.0001) // CMAX =         -3.495000000000000E+03
(PID.TID 0000.0001) // CINT =          0.000000000000000E+00
(PID.TID 0000.0001) // SYMBOLS (CMIN->CMAX): -abcdefghijklmnopqrstuvwxyz+
(PID.TID 0000.0001) //                  0.0: .
(PID.TID 0000.0001) // RANGE I (Lo:Hi:Step):(    -1:     3:     1)
(PID.TID 0000.0001) // RANGE J (Lo:Hi:Step):(     3:    -1:    -1)
(PID.TID 0000.0001) // RANGE K (Lo:Hi:Step):(   1:   1:   1)
(PID.TID 0000.0001) // =======================================================
(PID.TID 0000.0001) // =======================================================
(PID.TID 0000.0001) // END OF FIELD                                          =
(PID.TID 0000.0001) // =======================================================
(PID.TID 0000.0001) 
(PID.TID 0000.0001) // =======================================================
(PID.TID 0000.0001) // Field Model Ro_surf (ini_masks_etc)
(PID.TID 0000.0001) // CMIN =          1.000000000000000E+32
(PID.TID 0000.0001) // CMAX =         -1.000000000000000E+32
(PID.TID 0000.0001) // CINT =          0.000000000000000E+00
(PID.TID 0000.0001) // SYMBOLS (CMIN->CMAX): -abcdefghijklmnopqrstuvwxyz+
(PID.TID 0000.0001) //                  0.0: .
(PID.TID 0000.0001) // RANGE I (Lo:Hi:Step):(    -1:     3:     1)
(PID.TID 0000.0001) // RANGE J (Lo:Hi:Step):(     3:    -1:    -1)
(PID.TID 0000.0001) // RANGE K (Lo:Hi:Step):(   1:   1:   1)
(PID.TID 0000.0001) // =======================================================
(PID.TID 0000.0001) // =======================================================
(PID.TID 0000.0001) // END OF FIELD                                          =
(PID.TID 0000.0001) // =======================================================
(PID.TID 0000.0001) 
(PID.TID 0000.0001) // =======================================================
(PID.TID 0000.0001) // Field hFacC at iteration          0
(PID.TID 0000.0001) // CMIN =          1.000000000000000E+00
(PID.TID 0000.0001) // CMAX =          1.000000000000000E+00
(PID.TID 0000.0001) // CINT =          0.000000000000000E+00
(PID.TID 0000.0001) // SYMBOLS (CMIN->CMAX): -abcdefghijklmnopqrstuvwxyz+
(PID.TID 0000.0001) //                  0.0: .
(PID.TID 0000.0001) // RANGE I (Lo:Hi:Step):(    -1:     3:     1)
(PID.TID 0000.0001) // RANGE J (Lo:Hi:Step):(     3:    -1:    -1)
(PID.TID 0000.0001) // RANGE K (Lo:Hi:Step):(   1:   1:   1)
(PID.TID 0000.0001) // =======================================================
(PID.TID 0000.0001) // =======================================================
(PID.TID 0000.0001) // END OF FIELD                                          =
(PID.TID 0000.0001) // =======================================================
(PID.TID 0000.0001) 
(PID.TID 0000.0001) // =======================================================
(PID.TID 0000.0001) // Field hFacW at iteration          0
(PID.TID 0000.0001) // CMIN =          1.000000000000000E+00
(PID.TID 0000.0001) // CMAX =          1.000000000000000E+00
(PID.TID 0000.0001) // CINT =          0.000000000000000E+00
(PID.TID 0000.0001) // SYMBOLS (CMIN->CMAX): -abcdefghijklmnopqrstuvwxyz+
(PID.TID 0000.0001) //                  0.0: .
(PID.TID 0000.0001) // RANGE I (Lo:Hi:Step):(    -1:     3:     1)
(PID.TID 0000.0001) // RANGE J (Lo:Hi:Step):(     3:    -1:    -1)
(PID.TID 0000.0001) // RANGE K (Lo:Hi:Step):(   1:   1:   1)
(PID.TID 0000.0001) // =======================================================
(PID.TID 0000.0001) // =======================================================
(PID.TID 0000.0001) // END OF FIELD                                          =
(PID.TID 0000.0001) // =======================================================
(PID.TID 0000.0001) 
(PID.TID 0000.0001) // =======================================================
(PID.TID 0000.0001) // Field hFacS at iteration          0
(PID.TID 0000.0001) // CMIN =          1.000000000000000E+00
(PID.TID 0000.0001) // CMAX =          1.000000000000000E+00
(PID.TID 0000.0001) // CINT =          0.000000000000000E+00
(PID.TID 0000.0001) // SYMBOLS (CMIN->CMAX): -abcdefghijklmnopqrstuvwxyz+
(PID.TID 0000.0001) //                  0.0: .
(PID.TID 0000.0001) // RANGE I (Lo:Hi:Step):(    -1:     3:     1)
(PID.TID 0000.0001) // RANGE J (Lo:Hi:Step):(     3:    -1:    -1)
(PID.TID 0000.0001) // RANGE K (Lo:Hi:Step):(   1:   1:   1)
(PID.TID 0000.0001) // =======================================================
(PID.TID 0000.0001) // =======================================================
(PID.TID 0000.0001) // END OF FIELD                                          =
(PID.TID 0000.0001) // =======================================================
(PID.TID 0000.0001) 
(PID.TID 0000.0001) 
(PID.TID 0000.0001) // =======================================================
(PID.TID 0000.0001) // Calendar configuration >>> START <<<
(PID.TID 0000.0001) // =======================================================
(PID.TID 0000.0001) 
(PID.TID 0000.0001) modelstart = /* Start time of the model integration [s] */
(PID.TID 0000.0001)                 0.000000000000000E+00
(PID.TID 0000.0001)     ;
(PID.TID 0000.0001) modelend  = /* End time of the model integration [s] */
(PID.TID 0000.0001)                 1.440000000000000E+04
(PID.TID 0000.0001)     ;
(PID.TID 0000.0001) modelStep = /* Time interval for a model forward step [s] */
(PID.TID 0000.0001)                 3.600000000000000E+03
(PID.TID 0000.0001)     ;
(PID.TID 0000.0001) usingGregorianCalendar= /* Calendar Type: Gregorian Calendar */
(PID.TID 0000.0001)                   F
(PID.TID 0000.0001)     ;
(PID.TID 0000.0001) usingJulianCalendar = /* Calendar Type: Julian Calendar */
(PID.TID 0000.0001)                   F
(PID.TID 0000.0001)     ;
(PID.TID 0000.0001) usingNoLeapYearCal  = /* Calendar Type: without Leap Year */
(PID.TID 0000.0001)                   F
(PID.TID 0000.0001)     ;
(PID.TID 0000.0001) usingModelCalendar  = /* Calendar Type: Model Calendar */
(PID.TID 0000.0001)                   T
(PID.TID 0000.0001)     ;
(PID.TID 0000.0001) modelStartDate YYYYMMDD = /* Model start date YYYY-MM-DD */
(PID.TID 0000.0001)                19920101
(PID.TID 0000.0001)     ;
(PID.TID 0000.0001)   modelStartDate HHMMSS = /* Model start date HH-MM-SS  */
(PID.TID 0000.0001)                       0
(PID.TID 0000.0001)     ;
(PID.TID 0000.0001) modelEndDate   YYYYMMDD = /* Model end date YYYY-MM-DD */
(PID.TID 0000.0001)                19920101
(PID.TID 0000.0001)     ;
(PID.TID 0000.0001)   modelEndDate   HHMMSS = /* Model end date HH-MM-SS  */
(PID.TID 0000.0001)                   40000
(PID.TID 0000.0001)     ;
(PID.TID 0000.0001) intyears = /* Number of calendar years affected by the integration */
(PID.TID 0000.0001)                       1
(PID.TID 0000.0001)     ;
(PID.TID 0000.0001) intmonths= /* Number of calendar months affected by the integration */
(PID.TID 0000.0001)                       1
(PID.TID 0000.0001)     ;
(PID.TID 0000.0001) intdays = /* Number of calendar days affected by the integration */
(PID.TID 0000.0001)                       1
(PID.TID 0000.0001)     ;
(PID.TID 0000.0001) modelIter0 = /* Base timestep number  */
(PID.TID 0000.0001)                       0
(PID.TID 0000.0001)     ;
(PID.TID 0000.0001) modelIterEnd = /* Final timestep number  */
(PID.TID 0000.0001)                       4
(PID.TID 0000.0001)     ;
(PID.TID 0000.0001) modelIntSteps= /* Number of model timesteps  */
(PID.TID 0000.0001)                       4
(PID.TID 0000.0001)     ;
(PID.TID 0000.0001) 
(PID.TID 0000.0001) // =======================================================
(PID.TID 0000.0001) // Calendar configuration  >>> END <<<
(PID.TID 0000.0001) // =======================================================
(PID.TID 0000.0001) 
(PID.TID 0000.0001) GAD_INIT_FIXED: GAD_OlMinSize=  2  0  1
(PID.TID 0000.0001) 
(PID.TID 0000.0001) // ===================================
(PID.TID 0000.0001) // GAD parameters :
(PID.TID 0000.0001) // ===================================
(PID.TID 0000.0001) tempAdvScheme =   /* Temp. Horiz.Advection scheme selector */
(PID.TID 0000.0001)                       3
(PID.TID 0000.0001)     ;
(PID.TID 0000.0001) tempVertAdvScheme =   /* Temp. Vert. Advection scheme selector */
(PID.TID 0000.0001)                       3
(PID.TID 0000.0001)     ;
(PID.TID 0000.0001) tempMultiDimAdvec =   /* use Muti-Dim Advec method for Temp */
(PID.TID 0000.0001)                   F
(PID.TID 0000.0001)     ;
(PID.TID 0000.0001) tempSOM_Advection = /* use 2nd Order Moment Advection for Temp */
(PID.TID 0000.0001)                   F
(PID.TID 0000.0001)     ;
(PID.TID 0000.0001) AdamsBashforthGt = /* apply Adams-Bashforth extrapolation on Gt */
(PID.TID 0000.0001)                   T
(PID.TID 0000.0001)     ;
(PID.TID 0000.0001) AdamsBashforth_T = /* apply Adams-Bashforth extrapolation on Temp */
(PID.TID 0000.0001)                   F
(PID.TID 0000.0001)     ;
(PID.TID 0000.0001) saltAdvScheme =   /* Salt. Horiz.advection scheme selector */
(PID.TID 0000.0001)                       3
(PID.TID 0000.0001)     ;
(PID.TID 0000.0001) saltVertAdvScheme =   /* Salt. Vert. Advection scheme selector */
(PID.TID 0000.0001)                       3
(PID.TID 0000.0001)     ;
(PID.TID 0000.0001) saltMultiDimAdvec =   /* use Muti-Dim Advec method for Salt */
(PID.TID 0000.0001)                   F
(PID.TID 0000.0001)     ;
(PID.TID 0000.0001) saltSOM_Advection = /* use 2nd Order Moment Advection for Salt */
(PID.TID 0000.0001)                   F
(PID.TID 0000.0001)     ;
(PID.TID 0000.0001) AdamsBashforthGs = /* apply Adams-Bashforth extrapolation on Gs */
(PID.TID 0000.0001)                   F
(PID.TID 0000.0001)     ;
(PID.TID 0000.0001) AdamsBashforth_S = /* apply Adams-Bashforth extrapolation on Salt */
(PID.TID 0000.0001)                   F
(PID.TID 0000.0001)     ;
(PID.TID 0000.0001) // ===================================
(PID.TID 0000.0001) 
(PID.TID 0000.0001) // =======================================================
(PID.TID 0000.0001) // External forcing (EXF) configuration >>> START <<<
(PID.TID 0000.0001) // =======================================================
(PID.TID 0000.0001) 
(PID.TID 0000.0001)  EXF general parameters:
(PID.TID 0000.0001) 
(PID.TID 0000.0001) exf_iprec = /* exf file precision */
(PID.TID 0000.0001)                      64
(PID.TID 0000.0001)     ;
(PID.TID 0000.0001) useExfYearlyFields = /* add extension _YEAR to input file names */
(PID.TID 0000.0001)                   T
(PID.TID 0000.0001)     ;
(PID.TID 0000.0001) twoDigitYear = /* use 2-digit year extension */
(PID.TID 0000.0001)                   T
(PID.TID 0000.0001)     ;
(PID.TID 0000.0001) useExfCheckRange = /* check for fields range */
(PID.TID 0000.0001)                   F
(PID.TID 0000.0001)     ;
(PID.TID 0000.0001) exf_debugLev = /* select EXF-debug printing level */
(PID.TID 0000.0001)                       2
(PID.TID 0000.0001)     ;
(PID.TID 0000.0001) exf_monFreq  = /* EXF monitor frequency [ s ] */
(PID.TID 0000.0001)                 1.000000000000000E+00
(PID.TID 0000.0001)     ;
(PID.TID 0000.0001) repeatPeriod = /* period for cycling forcing dataset [ s ] */
(PID.TID 0000.0001)                 0.000000000000000E+00
(PID.TID 0000.0001)     ;
(PID.TID 0000.0001) climTempFreeze= /* Minimum climatological temperature [deg.C] */
(PID.TID 0000.0001)                -1.900000000000000E+00
(PID.TID 0000.0001)     ;
(PID.TID 0000.0001) windStressMax = /* Maximum absolute windstress [ Pa ] */
(PID.TID 0000.0001)                 2.000000000000000E+00
(PID.TID 0000.0001)     ;
(PID.TID 0000.0001) stressIsOnCgrid = /* set u,v_stress on Arakawa C-grid */
(PID.TID 0000.0001)                   F
(PID.TID 0000.0001)     ;
(PID.TID 0000.0001) cen2kel = /* conversion of deg. Centigrade to Kelvin [K] */
(PID.TID 0000.0001)                 2.731500000000000E+02
(PID.TID 0000.0001)     ;
(PID.TID 0000.0001) gravity_mks= /* gravitational acceleration [m/s^2] */
(PID.TID 0000.0001)                 9.810000000000000E+00
(PID.TID 0000.0001)     ;
(PID.TID 0000.0001) atmrho =  /* mean atmospheric density [kg/m^3] */
(PID.TID 0000.0001)                 1.200000000000000E+00
(PID.TID 0000.0001)     ;
(PID.TID 0000.0001) atmcp =  /* mean atmospheric specific heat [J/kg/K] */
(PID.TID 0000.0001)                 1.005000000000000E+03
(PID.TID 0000.0001)     ;
(PID.TID 0000.0001) flamb =  /* latent heat of evaporation [J/kg] */
(PID.TID 0000.0001)                 2.500000000000000E+06
(PID.TID 0000.0001)     ;
(PID.TID 0000.0001) flami =  /* latent heat of pure-ice melting [J/kg] */
(PID.TID 0000.0001)                 3.340000000000000E+05
(PID.TID 0000.0001)     ;
(PID.TID 0000.0001) cvapor_fac = /* const. for Saturation calculation [?] */
(PID.TID 0000.0001)                 6.403800000000000E+05
(PID.TID 0000.0001)     ;
(PID.TID 0000.0001) cvapor_exp = /* const. for Saturation calculation [?] */
(PID.TID 0000.0001)                 5.107400000000000E+03
(PID.TID 0000.0001)     ;
(PID.TID 0000.0001) cvapor_fac_ice= /* const. for Saturation calculation [?] */
(PID.TID 0000.0001)                 1.163780000000000E+07
(PID.TID 0000.0001)     ;
(PID.TID 0000.0001) cvapor_exp_ice= /* const. for Saturation calculation [?] */
(PID.TID 0000.0001)                 5.897800000000000E+03
(PID.TID 0000.0001)     ;
(PID.TID 0000.0001) humid_fac = /* humidity coef. in virtual temp. [(kg/kg)^-1] */
(PID.TID 0000.0001)                 6.060000000000000E-01
(PID.TID 0000.0001)     ;
(PID.TID 0000.0001) gamma_blk = /* adiabatic lapse rate [?] */
(PID.TID 0000.0001)                 1.000000000000000E-02
(PID.TID 0000.0001)     ;
(PID.TID 0000.0001) saltsat = /* reduction of Qsat over salty water [-] */
(PID.TID 0000.0001)                 9.800000000000000E-01
(PID.TID 0000.0001)     ;
(PID.TID 0000.0001) noNegativeEvap = /* prevent negative Evaporation */
(PID.TID 0000.0001)                   F
(PID.TID 0000.0001)     ;
(PID.TID 0000.0001) sstExtrapol = /* extrapolation coeff from lev. 1 & 2 to surf [-] */
(PID.TID 0000.0001)                 0.000000000000000E+00
(PID.TID 0000.0001)     ;
(PID.TID 0000.0001) cDrag_1 = /* coef used in drag calculation [?] */
(PID.TID 0000.0001)                 2.700000000000000E-03
(PID.TID 0000.0001)     ;
(PID.TID 0000.0001) cDrag_2 = /* coef used in drag calculation [?] */
(PID.TID 0000.0001)                 1.420000000000000E-04
(PID.TID 0000.0001)     ;
(PID.TID 0000.0001) cDrag_3 = /* coef used in drag calculation [?] */
(PID.TID 0000.0001)                 7.640000000000000E-05
(PID.TID 0000.0001)     ;
(PID.TID 0000.0001) cStanton_1 = /* coef used in Stanton number calculation [?] */
(PID.TID 0000.0001)                 3.270000000000000E-02
(PID.TID 0000.0001)     ;
(PID.TID 0000.0001) cStanton_2 = /* coef used in Stanton number calculation [?] */
(PID.TID 0000.0001)                 1.800000000000000E-02
(PID.TID 0000.0001)     ;
(PID.TID 0000.0001) cDalton = /* coef used in Dalton number calculation [?] */
(PID.TID 0000.0001)                 3.460000000000000E-02
(PID.TID 0000.0001)     ;
(PID.TID 0000.0001) exf_scal_BulkCdn= /* Drag coefficient scaling factor [-] */
(PID.TID 0000.0001)                 1.000000000000000E+00
(PID.TID 0000.0001)     ;
(PID.TID 0000.0001) zolmin = /* minimum stability parameter [?] */
(PID.TID 0000.0001)                -1.000000000000000E+02
(PID.TID 0000.0001)     ;
(PID.TID 0000.0001) psim_fac = /* coef used in turbulent fluxes calculation [-] */
(PID.TID 0000.0001)                 5.000000000000000E+00
(PID.TID 0000.0001)     ;
(PID.TID 0000.0001) zref =  /* reference height [ m ] */
(PID.TID 0000.0001)                 1.000000000000000E+01
(PID.TID 0000.0001)     ;
(PID.TID 0000.0001) hu =  /* height of mean wind [ m ] */
(PID.TID 0000.0001)                 1.000000000000000E+01
(PID.TID 0000.0001)     ;
(PID.TID 0000.0001) ht =  /* height of mean temperature [ m ] */
(PID.TID 0000.0001)                 2.000000000000000E+00
(PID.TID 0000.0001)     ;
(PID.TID 0000.0001) hq =  /* height of mean spec.humidity [ m ] */
(PID.TID 0000.0001)                 2.000000000000000E+00
(PID.TID 0000.0001)     ;
(PID.TID 0000.0001) uMin = /* minimum wind speed [m/s] */
(PID.TID 0000.0001)                 5.000000000000000E-01
(PID.TID 0000.0001)     ;
(PID.TID 0000.0001) useStabilityFct_overIce= /* transfert Coeffs over sea-ice depend on stability */
(PID.TID 0000.0001)                   F
(PID.TID 0000.0001)     ;
(PID.TID 0000.0001) exf_iceCd = /* drag coefficient over sea-ice (fixed) [-] */
(PID.TID 0000.0001)                 1.630000000000000E-03
(PID.TID 0000.0001)     ;
(PID.TID 0000.0001) exf_iceCe = /* transfert coeff. over sea-ice, for Evap (fixed) [-] */
(PID.TID 0000.0001)                 1.630000000000000E-03
(PID.TID 0000.0001)     ;
(PID.TID 0000.0001) exf_iceCh = /* transfert coeff. over sea-ice, Sens.Heat.(fixed)[-] */
(PID.TID 0000.0001)                 1.630000000000000E-03
(PID.TID 0000.0001)     ;
(PID.TID 0000.0001) exf_albedo =  /* Sea-water albedo [-] */
(PID.TID 0000.0001)                 1.500000000000000E-01
(PID.TID 0000.0001)     ;
(PID.TID 0000.0001) useExfZenAlbedo = /* Sea-water albedo varies with zenith angle */
(PID.TID 0000.0001)                   F
(PID.TID 0000.0001)     ;
(PID.TID 0000.0001) select_ZenAlbedo = /* Sea-water albedo computation method */
(PID.TID 0000.0001)                       0
(PID.TID 0000.0001)     ;
(PID.TID 0000.0001) useExfZenIncoming = /* compute incoming solar radiation */
(PID.TID 0000.0001)                   F
(PID.TID 0000.0001)     ;
(PID.TID 0000.0001) ocean_emissivity = /* longwave ocean-surface emissivity [-] */
(PID.TID 0000.0001)                 9.700176366843034E-01
(PID.TID 0000.0001)     ;
(PID.TID 0000.0001) ice_emissivity = /* longwave seaice emissivity [-] */
(PID.TID 0000.0001)                 9.500000000000000E-01
(PID.TID 0000.0001)     ;
(PID.TID 0000.0001) snow_emissivity = /* longwave snow  emissivity [-] */
(PID.TID 0000.0001)                 9.500000000000000E-01
(PID.TID 0000.0001)     ;
(PID.TID 0000.0001) 
(PID.TID 0000.0001)  EXF main CPP flags:
(PID.TID 0000.0001) 
(PID.TID 0000.0001) // USE_EXF_INTERPOLATION:          NOT defined
(PID.TID 0000.0001) // ALLOW_ATM_TEMP:                     defined
(PID.TID 0000.0001) // ALLOW_ATM_WIND (useAtmWind):        defined
(PID.TID 0000.0001) // ALLOW_DOWNWARD_RADIATION:           defined
(PID.TID 0000.0001) // ALLOW_BULKFORMULAE:                 defined
(PID.TID 0000.0001) 
(PID.TID 0000.0001)    Net shortwave flux forcing starts at                0.
(PID.TID 0000.0001)    Net shortwave flux forcing period is                0.
(PID.TID 0000.0001)    Net shortwave flux forcing is read from file:
(PID.TID 0000.0001)    >>    <<
(PID.TID 0000.0001) 
(PID.TID 0000.0001)    Zonal wind forcing starts at                          0.
(PID.TID 0000.0001)    Zonal wind forcing period is                          0.
(PID.TID 0000.0001)    Zonal wind forcing is read from file:
(PID.TID 0000.0001)    >>    <<
(PID.TID 0000.0001) 
(PID.TID 0000.0001)    Meridional wind forcing starts at                     0.
(PID.TID 0000.0001)    Meridional wind forcing period is                     0.
(PID.TID 0000.0001)    Meridional wind forcing is read from file:
(PID.TID 0000.0001)    >>    <<
(PID.TID 0000.0001) 
(PID.TID 0000.0001)    Atmospheric temperature starts at                     0.
(PID.TID 0000.0001)    Atmospheric temperature period is                     0.
(PID.TID 0000.0001)    Atmospheric temperature is read from file:
(PID.TID 0000.0001)    >>    <<
(PID.TID 0000.0001) 
(PID.TID 0000.0001)    Atmospheric specific humidity starts at               0.
(PID.TID 0000.0001)    Atmospheric specific humidity period is               0.
(PID.TID 0000.0001)    Atmospheric specific humidity is read from file:
(PID.TID 0000.0001)    >>    <<
(PID.TID 0000.0001) 
(PID.TID 0000.0001)    Net longwave flux forcing starts at                 0.
(PID.TID 0000.0001)    Net longwave flux forcing period is                 0.
(PID.TID 0000.0001)    Net longwave flux forcing is read from file:
(PID.TID 0000.0001)    >>    <<
(PID.TID 0000.0001) 
(PID.TID 0000.0001)    Precipitation data set starts at                      0.
(PID.TID 0000.0001)    Precipitation data period is                          0.
(PID.TID 0000.0001)    Precipitation data is read from file:
(PID.TID 0000.0001)    >>    <<
(PID.TID 0000.0001) 
(PID.TID 0000.0001) // EXF_READ_EVAP:                  NOT defined
(PID.TID 0000.0001) 
(PID.TID 0000.0001) // ALLOW_RUNOFF:                       defined
(PID.TID 0000.0001)    Runoff starts at               0.
(PID.TID 0000.0001)    Runoff period is               0.
(PID.TID 0000.0001)    Runoff is read from file:
(PID.TID 0000.0001)    >>    <<
(PID.TID 0000.0001) // ALLOW_RUNOFTEMP:                NOT defined
(PID.TID 0000.0001) 
(PID.TID 0000.0001)    Downward shortwave flux forcing starts at                0.
(PID.TID 0000.0001)    Downward shortwave flux forcing period is                0.
(PID.TID 0000.0001)    Downward shortwave flux forcing is read from file:
(PID.TID 0000.0001)    >>    <<
(PID.TID 0000.0001) 
(PID.TID 0000.0001)    Downward longwave flux forcing starts at                 0.
(PID.TID 0000.0001)    Downward longwave flux forcing period is                 0.
(PID.TID 0000.0001)    Downward longwave flux forcing is read from file:
(PID.TID 0000.0001)    >>    <<
(PID.TID 0000.0001) 
(PID.TID 0000.0001)    Atmospheric pressure forcing starts at                0.
(PID.TID 0000.0001)    Atmospheric pressure forcing period is                0.
(PID.TID 0000.0001)    Atmospheric pressureforcing is read from file:
(PID.TID 0000.0001)    >>    <<
(PID.TID 0000.0001) 
(PID.TID 0000.0001) // =======================================================
(PID.TID 0000.0001) // External forcing (EXF) climatology configuration :
(PID.TID 0000.0001) // =======================================================
(PID.TID 0000.0001) 
(PID.TID 0000.0001) // ALLOW_CLIMSST_RELAXATION:       NOT defined
(PID.TID 0000.0001) // ALLOW_CLIMSSS_RELAXATION:       NOT defined
(PID.TID 0000.0001) 
(PID.TID 0000.0001) // =======================================================
(PID.TID 0000.0001) // External forcing (EXF) configuration  >>> END <<<
(PID.TID 0000.0001) // =======================================================
(PID.TID 0000.0001) 
(PID.TID 0000.0001) GUD_RANDOM_INIT: port_rand               56   0.3052905000000000
(PID.TID 0000.0001)  GUD_INIT_FIXED: opening data.traits
(PID.TID 0000.0001)  OPEN_COPY_DATA_FILE: opening file data.traits
(PID.TID 0000.0001) // =======================================================
(PID.TID 0000.0001) // Removing comments from "data.traits"
(PID.TID 0000.0001) // =======================================================
(PID.TID 0000.0001)    1  &GUD_TRAITS
(PID.TID 0000.0001)    2  EXPORTFRAC(25:26)= 2*0.2,
(PID.TID 0000.0001)    3
(PID.TID 0000.0001)    4  PALAT=  1444*0.0 ,
(PID.TID 0000.0001)    5  PALAT(  1,25)=  1.0,
(PID.TID 0000.0001)    6  PALAT(  2,26)=  1.0,
(PID.TID 0000.0001)    7  PALAT(  3,27)=  1.0,
(PID.TID 0000.0001)    8  PALAT(  4,28)=  1.0,
(PID.TID 0000.0001)    9  PALAT(  5,29)=  1.0,
(PID.TID 0000.0001)   10  PALAT(  6,29)=  1.0,
(PID.TID 0000.0001)   11  PALAT(  7,30)=  1.0,
(PID.TID 0000.0001)   12  PALAT(  8,30)=  1.0,
(PID.TID 0000.0001)   13  PALAT(  9,30)=  1.0,
(PID.TID 0000.0001)   14  PALAT( 10,31)=  1.0,
(PID.TID 0000.0001)   15  PALAT( 11,31)=  1.0,
(PID.TID 0000.0001)   16  PALAT( 12,31)=  1.0,
(PID.TID 0000.0001)   17  PALAT( 13,32)=  1.0,
(PID.TID 0000.0001)   18  PALAT( 14,32)=  1.0,
(PID.TID 0000.0001)   19  PALAT( 15,32)=  1.0,
(PID.TID 0000.0001)   20  PALAT( 16,33)=  1.0,
(PID.TID 0000.0001)   21  PALAT( 17,33)=  1.0,
(PID.TID 0000.0001)   22  PALAT( 18,33)=  1.0,
(PID.TID 0000.0001)   23  PALAT( 19,34)=  1.0,
(PID.TID 0000.0001)   24  PALAT( 20,34)=  1.0,
(PID.TID 0000.0001)   25  PALAT( 21,35)=  1.0,
(PID.TID 0000.0001)   26  PALAT( 22,36)=  1.0,
(PID.TID 0000.0001)   27  PALAT( 23,37)=  1.0,
(PID.TID 0000.0001)   28  PALAT( 24,38)=  1.0,
(PID.TID 0000.0001)   29  /
(PID.TID 0000.0001) // =======================================================
(PID.TID 0000.0001) // Parameter file "data.traits"
(PID.TID 0000.0001) // =======================================================
(PID.TID 0000.0001) > &GUD_TRAITS
(PID.TID 0000.0001) ># small zoo
(PID.TID 0000.0001) > EXPORTFRAC(25:26)= 2*0.2,
(PID.TID 0000.0001) >
(PID.TID 0000.0001) > PALAT=  1444*0.0 ,
(PID.TID 0000.0001) > PALAT(  1,25)=  1.0,
(PID.TID 0000.0001) > PALAT(  2,26)=  1.0,
(PID.TID 0000.0001) > PALAT(  3,27)=  1.0,
(PID.TID 0000.0001) > PALAT(  4,28)=  1.0,
(PID.TID 0000.0001) > PALAT(  5,29)=  1.0,
(PID.TID 0000.0001) > PALAT(  6,29)=  1.0,
(PID.TID 0000.0001) > PALAT(  7,30)=  1.0,
(PID.TID 0000.0001) > PALAT(  8,30)=  1.0,
(PID.TID 0000.0001) > PALAT(  9,30)=  1.0,
(PID.TID 0000.0001) > PALAT( 10,31)=  1.0,
(PID.TID 0000.0001) > PALAT( 11,31)=  1.0,
(PID.TID 0000.0001) > PALAT( 12,31)=  1.0,
(PID.TID 0000.0001) > PALAT( 13,32)=  1.0,
(PID.TID 0000.0001) > PALAT( 14,32)=  1.0,
(PID.TID 0000.0001) > PALAT( 15,32)=  1.0,
(PID.TID 0000.0001) > PALAT( 16,33)=  1.0,
(PID.TID 0000.0001) > PALAT( 17,33)=  1.0,
(PID.TID 0000.0001) > PALAT( 18,33)=  1.0,
(PID.TID 0000.0001) > PALAT( 19,34)=  1.0,
(PID.TID 0000.0001) > PALAT( 20,34)=  1.0,
(PID.TID 0000.0001) > PALAT( 21,35)=  1.0,
(PID.TID 0000.0001) > PALAT( 22,36)=  1.0,
(PID.TID 0000.0001) > PALAT( 23,37)=  1.0,
(PID.TID 0000.0001) > PALAT( 24,38)=  1.0,
(PID.TID 0000.0001) > /
(PID.TID 0000.0001) 
(PID.TID 0000.0001)  ===================================
(PID.TID 0000.0001) ------------------------------------------------------------
(PID.TID 0000.0001) DIAGNOSTICS_SET_LEVELS: done
(PID.TID 0000.0001)  Total Nb of available Diagnostics: ndiagt=  3669
(PID.TID 0000.0001)  write list of available Diagnostics to file: available_diagnostics.log
(PID.TID 0000.0001) SETDIAG: Allocate 35 x  1 Levels for Diagnostic #   160 TRAC01
(PID.TID 0000.0001) SETDIAG: Allocate 35 x  1 Levels for Diagnostic #   174 TRAC02
(PID.TID 0000.0001) SETDIAG: Allocate 35 x  1 Levels for Diagnostic #   188 TRAC03
(PID.TID 0000.0001) SETDIAG: Allocate 35 x  1 Levels for Diagnostic #   202 TRAC04
(PID.TID 0000.0001) SETDIAG: Allocate 35 x  1 Levels for Diagnostic #   216 TRAC05
(PID.TID 0000.0001) SETDIAG: Allocate 35 x  1 Levels for Diagnostic #   230 TRAC06
(PID.TID 0000.0001) SETDIAG: Allocate 35 x  1 Levels for Diagnostic #   244 TRAC07
(PID.TID 0000.0001) SETDIAG: Allocate 35 x  1 Levels for Diagnostic #   258 TRAC08
(PID.TID 0000.0001) SETDIAG: Allocate 35 x  1 Levels for Diagnostic #   272 TRAC09
(PID.TID 0000.0001) SETDIAG: Allocate 35 x  1 Levels for Diagnostic #   286 TRAC10
(PID.TID 0000.0001) SETDIAG: Allocate 35 x  1 Levels for Diagnostic #   300 TRAC11
(PID.TID 0000.0001) SETDIAG: Allocate 35 x  1 Levels for Diagnostic #   314 TRAC12
(PID.TID 0000.0001) SETDIAG: Allocate 35 x  1 Levels for Diagnostic #   328 TRAC13
(PID.TID 0000.0001) SETDIAG: Allocate 35 x  1 Levels for Diagnostic #   342 TRAC14
(PID.TID 0000.0001) SETDIAG: Allocate 35 x  1 Levels for Diagnostic #   356 TRAC15
(PID.TID 0000.0001) SETDIAG: Allocate 35 x  1 Levels for Diagnostic #   370 TRAC16
(PID.TID 0000.0001) SETDIAG: Allocate 35 x  1 Levels for Diagnostic #   384 TRAC17
(PID.TID 0000.0001) SETDIAG: Allocate 35 x  1 Levels for Diagnostic #   398 TRAC18
(PID.TID 0000.0001) SETDIAG: Allocate 35 x  1 Levels for Diagnostic #   412 TRAC19
(PID.TID 0000.0001) SETDIAG: Allocate 35 x  1 Levels for Diagnostic #   426 TRAC20
(PID.TID 0000.0001) SETDIAG: Allocate 35 x  1 Levels for Diagnostic #   440 TRAC21
(PID.TID 0000.0001) SETDIAG: Allocate 35 x  1 Levels for Diagnostic #   454 TRAC22
(PID.TID 0000.0001) SETDIAG: Allocate 35 x  1 Levels for Diagnostic #   468 TRAC23
(PID.TID 0000.0001) SETDIAG: Allocate 35 x  1 Levels for Diagnostic #   482 TRAC24
(PID.TID 0000.0001) SETDIAG: Allocate 35 x  1 Levels for Diagnostic #   496 TRAC25
(PID.TID 0000.0001) SETDIAG: Allocate 35 x  1 Levels for Diagnostic #   510 TRAC26
(PID.TID 0000.0001) SETDIAG: Allocate 35 x  1 Levels for Diagnostic #   524 TRAC27
(PID.TID 0000.0001) SETDIAG: Allocate 35 x  1 Levels for Diagnostic #   538 TRAC28
(PID.TID 0000.0001) SETDIAG: Allocate 35 x  1 Levels for Diagnostic #   552 TRAC29
(PID.TID 0000.0001) SETDIAG: Allocate 35 x  1 Levels for Diagnostic #   566 TRAC30
(PID.TID 0000.0001) SETDIAG: Allocate 35 x  1 Levels for Diagnostic #   580 TRAC31
(PID.TID 0000.0001) SETDIAG: Allocate 35 x  1 Levels for Diagnostic #   594 TRAC32
(PID.TID 0000.0001) SETDIAG: Allocate 35 x  1 Levels for Diagnostic #   608 TRAC33
(PID.TID 0000.0001) SETDIAG: Allocate 35 x  1 Levels for Diagnostic #   622 TRAC34
(PID.TID 0000.0001) SETDIAG: Allocate 35 x  1 Levels for Diagnostic #   636 TRAC35
(PID.TID 0000.0001) SETDIAG: Allocate 35 x  1 Levels for Diagnostic #   650 TRAC36
(PID.TID 0000.0001) SETDIAG: Allocate 35 x  1 Levels for Diagnostic #   664 TRAC37
(PID.TID 0000.0001) SETDIAG: Allocate 35 x  1 Levels for Diagnostic #   678 TRAC38
(PID.TID 0000.0001) SETDIAG: Allocate 35 x  1 Levels for Diagnostic #   692 TRAC39
(PID.TID 0000.0001) SETDIAG: Allocate 35 x  1 Levels for Diagnostic #   706 TRAC40
(PID.TID 0000.0001) SETDIAG: Allocate 35 x  1 Levels for Diagnostic #   720 TRAC41
(PID.TID 0000.0001) SETDIAG: Allocate 35 x  1 Levels for Diagnostic #   734 TRAC42
(PID.TID 0000.0001) SETDIAG: Allocate 35 x  1 Levels for Diagnostic #   748 TRAC43
(PID.TID 0000.0001) SETDIAG: Allocate 35 x  1 Levels for Diagnostic #   762 TRAC44
(PID.TID 0000.0001) SETDIAG: Allocate 35 x  1 Levels for Diagnostic #   776 TRAC45
(PID.TID 0000.0001) SETDIAG: Allocate 35 x  1 Levels for Diagnostic #   790 TRAC46
(PID.TID 0000.0001) SETDIAG: Allocate 35 x  1 Levels for Diagnostic #   804 TRAC47
(PID.TID 0000.0001) SETDIAG: Allocate 35 x  1 Levels for Diagnostic #   818 TRAC48
(PID.TID 0000.0001) SETDIAG: Allocate 35 x  1 Levels for Diagnostic #   832 TRAC49
(PID.TID 0000.0001) SETDIAG: Allocate 35 x  1 Levels for Diagnostic #   846 TRAC50
(PID.TID 0000.0001) SETDIAG: Allocate 35 x  1 Levels for Diagnostic #   860 TRAC51
(PID.TID 0000.0001) SETDIAG: Allocate 35 x  1 Levels for Diagnostic #   874 TRAC52
(PID.TID 0000.0001) SETDIAG: Allocate 35 x  1 Levels for Diagnostic #   888 TRAC53
(PID.TID 0000.0001) SETDIAG: Allocate 35 x  1 Levels for Diagnostic #   902 TRAC54
(PID.TID 0000.0001) SETDIAG: Allocate 35 x  1 Levels for Diagnostic #   916 TRAC55
(PID.TID 0000.0001) SETDIAG: Allocate 35 x  1 Levels for Diagnostic #   930 TRAC56
(PID.TID 0000.0001) SETDIAG: Allocate 35 x  1 Levels for Diagnostic #   944 TRAC57
(PID.TID 0000.0001) SETDIAG: Allocate 35 x  1 Levels for Diagnostic #   958 TRAC58
(PID.TID 0000.0001) SETDIAG: Allocate 35 x  1 Levels for Diagnostic #   972 TRAC59
(PID.TID 0000.0001) SETDIAG: Allocate 35 x  1 Levels for Diagnostic #   986 TRAC60
(PID.TID 0000.0001) SETDIAG: Allocate 35 x  1 Levels for Diagnostic #  1000 TRAC61
(PID.TID 0000.0001) SETDIAG: Allocate 35 x  1 Levels for Diagnostic #  1014 TRAC62
(PID.TID 0000.0001) SETDIAG: Allocate 35 x  1 Levels for Diagnostic #  1028 TRAC63
(PID.TID 0000.0001) SETDIAG: Allocate 35 x  1 Levels for Diagnostic #  1042 TRAC64
(PID.TID 0000.0001) SETDIAG: Allocate 35 x  1 Levels for Diagnostic #  1056 TRAC65
(PID.TID 0000.0001) SETDIAG: Allocate 35 x  1 Levels for Diagnostic #  1070 TRAC66
(PID.TID 0000.0001) SETDIAG: Allocate 35 x  1 Levels for Diagnostic #  1084 TRAC67
(PID.TID 0000.0001) SETDIAG: Allocate 35 x  1 Levels for Diagnostic #  1098 TRAC68
(PID.TID 0000.0001) SETDIAG: Allocate 35 x  1 Levels for Diagnostic #  1112 TRAC69
(PID.TID 0000.0001) SETDIAG: Allocate 35 x  1 Levels for Diagnostic #  1126 TRAC70
(PID.TID 0000.0001) SETDIAG: Allocate 35 x  1 Levels for Diagnostic #  1140 TRAC71
(PID.TID 0000.0001) SETDIAG: Allocate 35 x  1 Levels for Diagnostic #  1154 TRAC72
(PID.TID 0000.0001) SETDIAG: Allocate 35 x  1 Levels for Diagnostic #  1168 TRAC73
(PID.TID 0000.0001) SETDIAG: Allocate 35 x  1 Levels for Diagnostic #  1182 TRAC74
(PID.TID 0000.0001) SETDIAG: Allocate 35 x  1 Levels for Diagnostic #  1196 TRAC75
(PID.TID 0000.0001) SETDIAG: Allocate 35 x  1 Levels for Diagnostic #  1210 TRAC76
(PID.TID 0000.0001) SETDIAG: Allocate 35 x  1 Levels for Diagnostic #  1224 TRAC77
(PID.TID 0000.0001) SETDIAG: Allocate 35 x  1 Levels for Diagnostic #  1238 TRAC78
(PID.TID 0000.0001) SETDIAG: Allocate 35 x  1 Levels for Diagnostic #  1252 TRAC79
(PID.TID 0000.0001) SETDIAG: Allocate 35 x  1 Levels for Diagnostic #  1266 TRAC80
(PID.TID 0000.0001) SETDIAG: Allocate 35 x  1 Levels for Diagnostic #  1280 TRAC81
(PID.TID 0000.0001) SETDIAG: Allocate 35 x  1 Levels for Diagnostic #  1294 TRAC82
(PID.TID 0000.0001) SETDIAG: Allocate 35 x  1 Levels for Diagnostic #  1308 TRAC83
(PID.TID 0000.0001) SETDIAG: Allocate 35 x  1 Levels for Diagnostic #  1322 TRAC84
(PID.TID 0000.0001) SETDIAG: Allocate 35 x  1 Levels for Diagnostic #  1336 TRAC85
(PID.TID 0000.0001) SETDIAG: Allocate 35 x  1 Levels for Diagnostic #  1350 TRAC86
(PID.TID 0000.0001) SETDIAG: Allocate 35 x  1 Levels for Diagnostic #  1364 TRAC87
(PID.TID 0000.0001) SETDIAG: Allocate 35 x  1 Levels for Diagnostic #  1378 TRAC88
(PID.TID 0000.0001) SETDIAG: Allocate 35 x  1 Levels for Diagnostic #  1392 TRAC89
(PID.TID 0000.0001) SETDIAG: Allocate 35 x  1 Levels for Diagnostic #  1406 TRAC90
(PID.TID 0000.0001) SETDIAG: Allocate 35 x  1 Levels for Diagnostic #  1420 TRAC91
(PID.TID 0000.0001) SETDIAG: Allocate 35 x  1 Levels for Diagnostic #  1434 TRAC92
(PID.TID 0000.0001) SETDIAG: Allocate 35 x  1 Levels for Diagnostic #  1448 TRAC93
(PID.TID 0000.0001) SETDIAG: Allocate 35 x  1 Levels for Diagnostic #  1462 TRAC94
(PID.TID 0000.0001) SETDIAG: Allocate 35 x  1 Levels for Diagnostic #  1476 TRAC95
(PID.TID 0000.0001) SETDIAG: Allocate 35 x  1 Levels for Diagnostic #  1490 TRAC96
(PID.TID 0000.0001) SETDIAG: Allocate 35 x  1 Levels for Diagnostic #  1504 TRAC97
(PID.TID 0000.0001) SETDIAG: Allocate 35 x  1 Levels for Diagnostic #  1518 TRAC98
(PID.TID 0000.0001) SETDIAG: Allocate 35 x  1 Levels for Diagnostic #  1532 TRAC99
(PID.TID 0000.0001) SETDIAG: Allocate 35 x  1 Levels for Diagnostic #  1546 TRAC0a
(PID.TID 0000.0001) SETDIAG: Allocate 35 x  1 Levels for Diagnostic #  1560 TRAC0b
(PID.TID 0000.0001) SETDIAG: Allocate 35 x  1 Levels for Diagnostic #  1574 TRAC0c
(PID.TID 0000.0001) SETDIAG: Allocate 35 x  1 Levels for Diagnostic #  1588 TRAC0d
(PID.TID 0000.0001) SETDIAG: Allocate 35 x  1 Levels for Diagnostic #  1602 TRAC0e
(PID.TID 0000.0001) SETDIAG: Allocate 35 x  1 Levels for Diagnostic #  1616 TRAC0f
(PID.TID 0000.0001) SETDIAG: Allocate 35 x  1 Levels for Diagnostic #  1630 TRAC0g
(PID.TID 0000.0001) SETDIAG: Allocate 35 x  1 Levels for Diagnostic #  1644 TRAC0h
(PID.TID 0000.0001) SETDIAG: Allocate 35 x  1 Levels for Diagnostic #  1658 TRAC0i
(PID.TID 0000.0001) SETDIAG: Allocate 35 x  1 Levels for Diagnostic #  1672 TRAC0j
(PID.TID 0000.0001) SETDIAG: Allocate 35 x  1 Levels for Diagnostic #  1686 TRAC0k
(PID.TID 0000.0001) SETDIAG: Allocate 35 x  1 Levels for Diagnostic #  1700 TRAC0l
(PID.TID 0000.0001) SETDIAG: Allocate 35 x  1 Levels for Diagnostic #  1714 TRAC0m
(PID.TID 0000.0001) SETDIAG: Allocate 35 x  1 Levels for Diagnostic #  1728 TRAC0n
(PID.TID 0000.0001) - NOTE - SETDIAG:  Diagnostic  #   160 TRAC01   is already set
(PID.TID 0000.0001) SETDIAG: Allocate 35 x  1 Levels for Diagnostic #  1742 TRAC0o
(PID.TID 0000.0001) SETDIAG: Allocate 35 x  1 Levels for Diagnostic #  1770 TRAC0q
(PID.TID 0000.0001) SETDIAG: Allocate 35 x  1 Levels for Diagnostic #  1784 TRAC0r
(PID.TID 0000.0001) SETDIAG: Allocate 35 x  1 Levels for Diagnostic #  1798 TRAC0s
(PID.TID 0000.0001) SETDIAG: Allocate 35 x  1 Levels for Diagnostic #  1812 TRAC0t
(PID.TID 0000.0001) SETDIAG: Allocate 35 x  1 Levels for Diagnostic #  1826 TRAC0u
(PID.TID 0000.0001) SETDIAG: Allocate 35 x  1 Levels for Diagnostic #  1840 TRAC0v
(PID.TID 0000.0001) SETDIAG: Allocate 35 x  1 Levels for Diagnostic #  1854 TRAC0w
(PID.TID 0000.0001) SETDIAG: Allocate 35 x  1 Levels for Diagnostic #  1868 TRAC0x
(PID.TID 0000.0001) SETDIAG: Allocate 35 x  1 Levels for Diagnostic #  1882 TRAC0y
(PID.TID 0000.0001) SETDIAG: Allocate 35 x  1 Levels for Diagnostic #  1896 TRAC0z
(PID.TID 0000.0001) SETDIAG: Allocate 35 x  1 Levels for Diagnostic #  1910 TRAC0A
(PID.TID 0000.0001) SETDIAG: Allocate 35 x  1 Levels for Diagnostic #  1924 TRAC0B
(PID.TID 0000.0001) SETDIAG: Allocate 35 x  1 Levels for Diagnostic #  1938 TRAC0C
(PID.TID 0000.0001) SETDIAG: Allocate 35 x  1 Levels for Diagnostic #  1952 TRAC0D
(PID.TID 0000.0001) SETDIAG: Allocate 35 x  1 Levels for Diagnostic #  1966 TRAC0E
(PID.TID 0000.0001) SETDIAG: Allocate 35 x  1 Levels for Diagnostic #  1980 TRAC0F
(PID.TID 0000.0001) SETDIAG: Allocate 35 x  1 Levels for Diagnostic #  1994 TRAC0G
(PID.TID 0000.0001) SETDIAG: Allocate 35 x  1 Levels for Diagnostic #  2008 TRAC0H
(PID.TID 0000.0001) SETDIAG: Allocate 35 x  1 Levels for Diagnostic #  2022 TRAC0I
(PID.TID 0000.0001) SETDIAG: Allocate 35 x  1 Levels for Diagnostic #  2036 TRAC0J
(PID.TID 0000.0001) SETDIAG: Allocate 35 x  1 Levels for Diagnostic #  2050 TRAC0K
(PID.TID 0000.0001) SETDIAG: Allocate 35 x  1 Levels for Diagnostic #  2064 TRAC0L
(PID.TID 0000.0001) SETDIAG: Allocate 35 x  1 Levels for Diagnostic #  2078 TRAC0M
(PID.TID 0000.0001) SETDIAG: Allocate 35 x  1 Levels for Diagnostic #  2092 TRAC0N
(PID.TID 0000.0001) - NOTE - SETDIAG:  Diagnostic  #   160 TRAC01   is already set
(PID.TID 0000.0001) SETDIAG: Allocate 35 x  1 Levels for Diagnostic #  2106 TRAC0O
(PID.TID 0000.0001) SETDIAG: Allocate 35 x  1 Levels for Diagnostic #  2134 TRAC0Q
(PID.TID 0000.0001) SETDIAG: Allocate 35 x  1 Levels for Diagnostic #  2148 TRAC0R
(PID.TID 0000.0001) SETDIAG: Allocate 35 x  1 Levels for Diagnostic #  2162 TRAC0S
(PID.TID 0000.0001) SETDIAG: Allocate 35 x  1 Levels for Diagnostic #  2176 TRAC0T
(PID.TID 0000.0001) SETDIAG: Allocate 35 x  1 Levels for Diagnostic #  2190 TRAC0U
(PID.TID 0000.0001) SETDIAG: Allocate 35 x  1 Levels for Diagnostic #  2204 TRAC0V
(PID.TID 0000.0001) SETDIAG: Allocate 35 x  1 Levels for Diagnostic #  2218 TRAC0W
(PID.TID 0000.0001) SETDIAG: Allocate 35 x  1 Levels for Diagnostic #  2232 TRAC0X
(PID.TID 0000.0001) SETDIAG: Allocate 35 x  1 Levels for Diagnostic #  2246 TRAC0Y
(PID.TID 0000.0001) SETDIAG: Allocate 35 x  1 Levels for Diagnostic #  2260 TRAC0Z
(PID.TID 0000.0001) SETDIAG: Allocate 35 x  1 Levels for Diagnostic #  2274 TRAC1a
(PID.TID 0000.0001) SETDIAG: Allocate 35 x  1 Levels for Diagnostic #  2288 TRAC1b
(PID.TID 0000.0001) SETDIAG: Allocate 35 x  1 Levels for Diagnostic #  2302 TRAC1c
(PID.TID 0000.0001) SETDIAG: Allocate 35 x  1 Levels for Diagnostic #  2316 TRAC1d
(PID.TID 0000.0001) SETDIAG: Allocate 35 x  1 Levels for Diagnostic #  2330 TRAC1e
(PID.TID 0000.0001) SETDIAG: Allocate 35 x  1 Levels for Diagnostic #  2344 TRAC1f
(PID.TID 0000.0001) SETDIAG: Allocate 35 x  1 Levels for Diagnostic #  2358 TRAC1g
(PID.TID 0000.0001) SETDIAG: Allocate 35 x  1 Levels for Diagnostic #  2372 TRAC1h
(PID.TID 0000.0001) SETDIAG: Allocate 35 x  1 Levels for Diagnostic #  2386 TRAC1i
(PID.TID 0000.0001) SETDIAG: Allocate 35 x  1 Levels for Diagnostic #  2400 TRAC1j
(PID.TID 0000.0001) SETDIAG: Allocate 35 x  1 Levels for Diagnostic #  2414 TRAC1k
(PID.TID 0000.0001) SETDIAG: Allocate 35 x  1 Levels for Diagnostic #  2428 TRAC1l
(PID.TID 0000.0001) SETDIAG: Allocate 35 x  1 Levels for Diagnostic #  2442 TRAC1m
(PID.TID 0000.0001) SETDIAG: Allocate 35 x  1 Levels for Diagnostic #  2456 TRAC1n
(PID.TID 0000.0001) - NOTE - SETDIAG:  Diagnostic  #   300 TRAC11   is already set
(PID.TID 0000.0001) SETDIAG: Allocate 35 x  1 Levels for Diagnostic #  2470 TRAC1o
(PID.TID 0000.0001) SETDIAG: Allocate 35 x  1 Levels for Diagnostic #  2498 TRAC1q
(PID.TID 0000.0001) SETDIAG: Allocate 35 x  1 Levels for Diagnostic #  2512 TRAC1r
(PID.TID 0000.0001) SETDIAG: Allocate 35 x  1 Levels for Diagnostic #  2526 TRAC1s
(PID.TID 0000.0001) SETDIAG: Allocate 35 x  1 Levels for Diagnostic #  2540 TRAC1t
(PID.TID 0000.0001) SETDIAG: Allocate 35 x  1 Levels for Diagnostic #  2554 TRAC1u
(PID.TID 0000.0001) SETDIAG: Allocate 35 x  1 Levels for Diagnostic #  2568 TRAC1v
(PID.TID 0000.0001) SETDIAG: Allocate 35 x  1 Levels for Diagnostic #  2582 TRAC1w
(PID.TID 0000.0001) SETDIAG: Allocate 35 x  1 Levels for Diagnostic #  2596 TRAC1x
(PID.TID 0000.0001) SETDIAG: Allocate 35 x  1 Levels for Diagnostic #  2610 TRAC1y
(PID.TID 0000.0001) SETDIAG: Allocate 35 x  1 Levels for Diagnostic #  2624 TRAC1z
(PID.TID 0000.0001) SETDIAG: Allocate 35 x  1 Levels for Diagnostic #  2638 TRAC1A
(PID.TID 0000.0001) SETDIAG: Allocate 35 x  1 Levels for Diagnostic #  2652 TRAC1B
(PID.TID 0000.0001) SETDIAG: Allocate 35 x  1 Levels for Diagnostic #  2666 TRAC1C
(PID.TID 0000.0001) SETDIAG: Allocate 35 x  1 Levels for Diagnostic #  2680 TRAC1D
(PID.TID 0000.0001) SETDIAG: Allocate 35 x  1 Levels for Diagnostic #  2694 TRAC1E
(PID.TID 0000.0001) SETDIAG: Allocate 35 x  1 Levels for Diagnostic #  2708 TRAC1F
(PID.TID 0000.0001) SETDIAG: Allocate 35 x  1 Levels for Diagnostic #  2722 TRAC1G
(PID.TID 0000.0001) SETDIAG: Allocate 35 x  1 Levels for Diagnostic #  2736 TRAC1H
(PID.TID 0000.0001) SETDIAG: Allocate 35 x  1 Levels for Diagnostic #  2750 TRAC1I
(PID.TID 0000.0001) SETDIAG: Allocate 35 x  1 Levels for Diagnostic #  2764 TRAC1J
(PID.TID 0000.0001) SETDIAG: Allocate 35 x  1 Levels for Diagnostic #  2778 TRAC1K
(PID.TID 0000.0001) SETDIAG: Allocate 35 x  1 Levels for Diagnostic #  2792 TRAC1L
(PID.TID 0000.0001) SETDIAG: Allocate 35 x  1 Levels for Diagnostic #  2806 TRAC1M
(PID.TID 0000.0001) SETDIAG: Allocate 35 x  1 Levels for Diagnostic #  2820 TRAC1N
(PID.TID 0000.0001) - NOTE - SETDIAG:  Diagnostic  #   300 TRAC11   is already set
(PID.TID 0000.0001) SETDIAG: Allocate 35 x  1 Levels for Diagnostic #  2834 TRAC1O
(PID.TID 0000.0001) SETDIAG: Allocate 35 x  1 Levels for Diagnostic #  2862 TRAC1Q
(PID.TID 0000.0001) SETDIAG: Allocate 35 x  1 Levels for Diagnostic #  2876 TRAC1R
(PID.TID 0000.0001) SETDIAG: Allocate 35 x  1 Levels for Diagnostic #  2890 TRAC1S
(PID.TID 0000.0001) SETDIAG: Allocate 35 x  1 Levels for Diagnostic #  2904 TRAC1T
(PID.TID 0000.0001) SETDIAG: Allocate 35 x  1 Levels for Diagnostic #  2918 TRAC1U
(PID.TID 0000.0001) SETDIAG: Allocate 35 x  1 Levels for Diagnostic #  2932 TRAC1V
(PID.TID 0000.0001) SETDIAG: Allocate 35 x  1 Levels for Diagnostic #  2946 TRAC1W
(PID.TID 0000.0001) SETDIAG: Allocate 35 x  1 Levels for Diagnostic #  2960 TRAC1X
(PID.TID 0000.0001) SETDIAG: Allocate 35 x  1 Levels for Diagnostic #  2974 TRAC1Y
(PID.TID 0000.0001) SETDIAG: Allocate 35 x  1 Levels for Diagnostic #  2988 TRAC1Z
(PID.TID 0000.0001) SETDIAG: Allocate 35 x  1 Levels for Diagnostic #  3002 TRAC2a
(PID.TID 0000.0001) SETDIAG: Allocate 35 x  1 Levels for Diagnostic #  3016 TRAC2b
(PID.TID 0000.0001) SETDIAG: Allocate 35 x  1 Levels for Diagnostic #  3030 TRAC2c
(PID.TID 0000.0001) SETDIAG: Allocate 35 x  1 Levels for Diagnostic #  3044 TRAC2d
(PID.TID 0000.0001) SETDIAG: Allocate 35 x  1 Levels for Diagnostic #  3058 TRAC2e
(PID.TID 0000.0001) SETDIAG: Allocate 35 x  1 Levels for Diagnostic #  3072 TRAC2f
(PID.TID 0000.0001) SETDIAG: Allocate 35 x  1 Levels for Diagnostic #  3086 TRAC2g
(PID.TID 0000.0001) SETDIAG: Allocate 35 x  1 Levels for Diagnostic #  3100 TRAC2h
(PID.TID 0000.0001) SETDIAG: Allocate 35 x  1 Levels for Diagnostic #  3114 TRAC2i
(PID.TID 0000.0001) SETDIAG: Allocate 35 x  1 Levels for Diagnostic #  3128 TRAC2j
(PID.TID 0000.0001) SETDIAG: Allocate 35 x  1 Levels for Diagnostic #  3142 TRAC2k
(PID.TID 0000.0001) SETDIAG: Allocate 35 x  1 Levels for Diagnostic #  3156 TRAC2l
(PID.TID 0000.0001) SETDIAG: Allocate 35 x  1 Levels for Diagnostic #  3170 TRAC2m
(PID.TID 0000.0001) SETDIAG: Allocate 35 x  1 Levels for Diagnostic #  3184 TRAC2n
(PID.TID 0000.0001) - NOTE - SETDIAG:  Diagnostic  #   440 TRAC21   is already set
(PID.TID 0000.0001) SETDIAG: Allocate 35 x  1 Levels for Diagnostic #  3198 TRAC2o
(PID.TID 0000.0001) SETDIAG: Allocate 35 x  1 Levels for Diagnostic #  3226 TRAC2q
(PID.TID 0000.0001) SETDIAG: Allocate 35 x  1 Levels for Diagnostic #  3240 TRAC2r
(PID.TID 0000.0001) SETDIAG: Allocate 35 x  1 Levels for Diagnostic #  3254 TRAC2s
(PID.TID 0000.0001) SETDIAG: Allocate 35 x  1 Levels for Diagnostic #  3268 TRAC2t
(PID.TID 0000.0001) SETDIAG: Allocate 35 x  1 Levels for Diagnostic #  3282 TRAC2u
(PID.TID 0000.0001) SETDIAG: Allocate 35 x  1 Levels for Diagnostic #  3296 TRAC2v
(PID.TID 0000.0001) SETDIAG: Allocate 35 x  1 Levels for Diagnostic #  3310 TRAC2w
(PID.TID 0000.0001) SETDIAG: Allocate 35 x  1 Levels for Diagnostic #  3324 TRAC2x
(PID.TID 0000.0001) SETDIAG: Allocate 35 x  1 Levels for Diagnostic #  3338 TRAC2y
(PID.TID 0000.0001) SETDIAG: Allocate 35 x  1 Levels for Diagnostic #  3352 TRAC2z
(PID.TID 0000.0001) SETDIAG: Allocate 35 x  1 Levels for Diagnostic #  3366 TRAC2A
(PID.TID 0000.0001) SETDIAG: Allocate 35 x  1 Levels for Diagnostic #  3380 TRAC2B
(PID.TID 0000.0001) SETDIAG: Allocate 35 x  1 Levels for Diagnostic #  3394 TRAC2C
(PID.TID 0000.0001) SETDIAG: Allocate 35 x  1 Levels for Diagnostic #  3408 TRAC2D
(PID.TID 0000.0001) SETDIAG: Allocate 35 x  1 Levels for Diagnostic #  3430 PAR01
(PID.TID 0000.0001) SETDIAG: Allocate 35 x  1 Levels for Diagnostic #  3423 PP
(PID.TID 0000.0001) SETDIAG: Allocate 35 x  1 Levels for Diagnostic #  3424 Nfix
(PID.TID 0000.0001) SETDIAG: Allocate 35 x  1 Levels for Diagnostic #  3425 Denit
(PID.TID 0000.0001)   space allocated for all diagnostics:    8120 levels
(PID.TID 0000.0001) DIAGNOSTICS_SET_POINTERS: Set levels for Outp.Stream: gud
(PID.TID 0000.0001)  Levels:       1.   2.   3.   4.   5.   6.   7.   8.   9.  10.  11.  12.  13.  14.  15.  16.  17.  18.  19.  20.
(PID.TID 0000.0001)  Levels:      21.  22.  23.  24.  25.  26.  27.  28.  29.  30.  31.  32.  33.  34.  35.
(PID.TID 0000.0001) DIAGNOSTICS_SET_POINTERS: done
(PID.TID 0000.0001) ------------------------------------------------------------
(PID.TID 0000.0001) DIAGSTATS_SET_REGIONS: define no region
(PID.TID 0000.0001) ------------------------------------------------------------
(PID.TID 0000.0001) SETDIAG: Allocate 35 Levels for Stats-Diag #  3423 PP
(PID.TID 0000.0001) SETDIAG: Allocate 35 Levels for Stats-Diag #  3424 Nfix
(PID.TID 0000.0001) SETDIAG: Allocate 35 Levels for Stats-Diag #  3425 Denit
(PID.TID 0000.0001)   space allocated for all stats-diags:     105 levels
(PID.TID 0000.0001) DIAGSTATS_SET_POINTERS: done
(PID.TID 0000.0001) ------------------------------------------------------------
(PID.TID 0000.0001) DIAGSTATS_INI_IO: open file: statsPP.0000000000.txt , unit=     9
(PID.TID 0000.0001) DIAGSTATS_INI_IO: open file: statsNfix.0000000000.txt , unit=    10
(PID.TID 0000.0001) DIAGSTATS_INI_IO: open file: statsDenit.0000000000.txt , unit=    16
(PID.TID 0000.0001) %MON fCori_max                    =  -1.0222233858954729E-04
(PID.TID 0000.0001) %MON fCori_min                    =  -1.0222233858954729E-04
(PID.TID 0000.0001) %MON fCori_mean                   =  -1.0222233858954729E-04
(PID.TID 0000.0001) %MON fCori_sd                     =   0.0000000000000000E+00
(PID.TID 0000.0001) %MON fCoriG_max                   =  -1.0312619976227580E-04
(PID.TID 0000.0001) %MON fCoriG_min                   =  -1.0312619976227580E-04
(PID.TID 0000.0001) %MON fCoriG_mean                  =  -1.0312619976227580E-04
(PID.TID 0000.0001) %MON fCoriG_sd                    =   0.0000000000000000E+00
(PID.TID 0000.0001) %MON fCoriCos_max                 =   1.0402220747562310E-04
(PID.TID 0000.0001) %MON fCoriCos_min                 =   1.0402220747562310E-04
(PID.TID 0000.0001) %MON fCoriCos_mean                =   1.0402220747562310E-04
(PID.TID 0000.0001) %MON fCoriCos_sd                  =   0.0000000000000000E+00
(PID.TID 0000.0001) INI_CG2D: CG2D normalisation factor =  2.0407738173224081E-04
(PID.TID 0000.0001) 
(PID.TID 0000.0001) // =======================================================
(PID.TID 0000.0001) // Model configuration
(PID.TID 0000.0001) // =======================================================
(PID.TID 0000.0001) //
(PID.TID 0000.0001) // "Physical" paramters ( PARM01 in namelist )
(PID.TID 0000.0001) //
(PID.TID 0000.0001) buoyancyRelation = /* Type of relation to get Buoyancy */
(PID.TID 0000.0001)               'OCEANIC'
(PID.TID 0000.0001)     ;
(PID.TID 0000.0001) fluidIsAir   =  /* fluid major constituent is Air */
(PID.TID 0000.0001)                   F
(PID.TID 0000.0001)     ;
(PID.TID 0000.0001) fluidIsWater =  /* fluid major constituent is Water */
(PID.TID 0000.0001)                   T
(PID.TID 0000.0001)     ;
(PID.TID 0000.0001) usingPCoords =  /* use p (or p*) vertical coordinate */
(PID.TID 0000.0001)                   F
(PID.TID 0000.0001)     ;
(PID.TID 0000.0001) usingZCoords =  /* use z (or z*) vertical coordinate */
(PID.TID 0000.0001)                   T
(PID.TID 0000.0001)     ;
(PID.TID 0000.0001) tRef =   /* Reference temperature profile ( oC or K ) */
(PID.TID 0000.0001)                 2.650000000000000E+01,      /* K =  1 */
(PID.TID 0000.0001)                 2.610000000000000E+01,      /* K =  2 */
(PID.TID 0000.0001)                 2.600000000000000E+01,      /* K =  3 */
(PID.TID 0000.0001)                 2.550000000000000E+01,      /* K =  4 */
(PID.TID 0000.0001)                 2.540000000000000E+01,      /* K =  5 */
(PID.TID 0000.0001)                 2.490000000000000E+01,      /* K =  6 */
(PID.TID 0000.0001)                 2.450000000000000E+01,      /* K =  7 */
(PID.TID 0000.0001)                 2.400000000000000E+01,      /* K =  8 */
(PID.TID 0000.0001)                 2.370000000000000E+01,      /* K =  9 */
(PID.TID 0000.0001)                 2.330000000000000E+01,      /* K = 10 */
(PID.TID 0000.0001)                 2.310000000000000E+01,      /* K = 11 */
(PID.TID 0000.0001)                 2.280000000000000E+01,      /* K = 12 */
(PID.TID 0000.0001)                 2.250000000000000E+01,      /* K = 13 */
(PID.TID 0000.0001)                 2.210000000000000E+01,      /* K = 14 */
(PID.TID 0000.0001)                 2.160000000000000E+01,      /* K = 15 */
(PID.TID 0000.0001)                 2.060000000000000E+01,      /* K = 16 */
(PID.TID 0000.0001)                 1.950000000000000E+01,      /* K = 17 */
(PID.TID 0000.0001)                 1.840000000000000E+01,      /* K = 18 */
(PID.TID 0000.0001)                 1.730000000000000E+01,      /* K = 19 */
(PID.TID 0000.0001)                 1.660000000000000E+01,      /* K = 20 */
(PID.TID 0000.0001)                 1.550000000000000E+01,      /* K = 21 */
(PID.TID 0000.0001)                 1.460000000000000E+01,      /* K = 22 */
(PID.TID 0000.0001)                 1.380000000000000E+01,      /* K = 23 */
(PID.TID 0000.0001)                 1.310000000000000E+01,      /* K = 24 */
(PID.TID 0000.0001)                 1.160000000000000E+01,      /* K = 25 */
(PID.TID 0000.0001)                 1.010000000000000E+01,      /* K = 26 */
(PID.TID 0000.0001)                 7.700000000000000E+00,      /* K = 27 */
(PID.TID 0000.0001)                 5.300000000000000E+00,      /* K = 28 */
(PID.TID 0000.0001)                 4.100000000000000E+00,      /* K = 29 */
(PID.TID 0000.0001)     2 @  3.700000000000000E+00,             /* K = 30: 31 */
(PID.TID 0000.0001)                 3.400000000000000E+00,      /* K = 32 */
(PID.TID 0000.0001)                 3.000000000000000E+00,      /* K = 33 */
(PID.TID 0000.0001)                 2.800000000000000E+00,      /* K = 34 */
(PID.TID 0000.0001)                 2.600000000000000E+00       /* K = 35 */
(PID.TID 0000.0001)     ;
(PID.TID 0000.0001) sRef =   /* Reference salinity profile ( psu ) */
(PID.TID 0000.0001)    35 @  3.500000000000000E+01              /* K =  1: 35 */
(PID.TID 0000.0001)     ;
(PID.TID 0000.0001) useStrainTensionVisc= /* Use StrainTension Form of Viscous Operator */
(PID.TID 0000.0001)                   F
(PID.TID 0000.0001)     ;
(PID.TID 0000.0001) useVariableVisc = /* Use variable horizontal viscosity */
(PID.TID 0000.0001)                   F
(PID.TID 0000.0001)     ;
(PID.TID 0000.0001) useHarmonicVisc = /* Use harmonic horizontal viscosity */
(PID.TID 0000.0001)                   F
(PID.TID 0000.0001)     ;
(PID.TID 0000.0001) useBiharmonicVisc= /* Use biharmonic horiz.  viscosity */
(PID.TID 0000.0001)                   F
(PID.TID 0000.0001)     ;
(PID.TID 0000.0001) useSmag3D = /* Use isotropic 3-D Smagorinsky viscosity */
(PID.TID 0000.0001)                   F
(PID.TID 0000.0001)     ;
(PID.TID 0000.0001) viscAh  =   /* Lateral harmonic viscosity ( m^2/s ) */
(PID.TID 0000.0001)                 0.000000000000000E+00
(PID.TID 0000.0001)     ;
(PID.TID 0000.0001) viscA4  =   /* Lateral biharmonic viscosity ( m^4/s ) */
(PID.TID 0000.0001)                 0.000000000000000E+00
(PID.TID 0000.0001)     ;
(PID.TID 0000.0001) no_slip_sides =  /* Viscous BCs: No-slip sides */
(PID.TID 0000.0001)                   F
(PID.TID 0000.0001)     ;
(PID.TID 0000.0001) sideDragFactor = /* side-drag scaling factor (non-dim) */
(PID.TID 0000.0001)                 2.000000000000000E+00
(PID.TID 0000.0001)     ;
(PID.TID 0000.0001) viscArNr = /* vertical profile of vertical viscosity ( m^2/s )*/
(PID.TID 0000.0001)    35 @  0.000000000000000E+00              /* K =  1: 35 */
(PID.TID 0000.0001)     ;
(PID.TID 0000.0001) no_slip_bottom =  /* Viscous BCs: No-slip bottom */
(PID.TID 0000.0001)                   T
(PID.TID 0000.0001)     ;
(PID.TID 0000.0001) bottomDragLinear = /* linear bottom-drag coefficient ( m/s ) */
(PID.TID 0000.0001)                 0.000000000000000E+00
(PID.TID 0000.0001)     ;
(PID.TID 0000.0001) bottomDragQuadratic = /* quadratic bottom-drag coefficient (-) */
(PID.TID 0000.0001)                 0.000000000000000E+00
(PID.TID 0000.0001)     ;
(PID.TID 0000.0001) diffKhT =   /* Laplacian diffusion of heat laterally ( m^2/s ) */
(PID.TID 0000.0001)                 1.000000000000000E+02
(PID.TID 0000.0001)     ;
(PID.TID 0000.0001) diffK4T =   /* Biharmonic diffusion of heat laterally ( m^4/s ) */
(PID.TID 0000.0001)                 0.000000000000000E+00
(PID.TID 0000.0001)     ;
(PID.TID 0000.0001) diffKhS =   /* Laplacian diffusion of salt laterally ( m^2/s ) */
(PID.TID 0000.0001)                 0.000000000000000E+00
(PID.TID 0000.0001)     ;
(PID.TID 0000.0001) diffK4S =   /* Biharmonic diffusion of salt laterally ( m^4/s ) */
(PID.TID 0000.0001)                 0.000000000000000E+00
(PID.TID 0000.0001)     ;
(PID.TID 0000.0001) diffKrNrT = /* vertical profile of vertical diffusion of Temp ( m^2/s )*/
(PID.TID 0000.0001)    35 @  1.000000000000000E-04              /* K =  1: 35 */
(PID.TID 0000.0001)     ;
(PID.TID 0000.0001) diffKrNrS = /* vertical profile of vertical diffusion of Salt ( m^2/s )*/
(PID.TID 0000.0001)    35 @  0.000000000000000E+00              /* K =  1: 35 */
(PID.TID 0000.0001)     ;
(PID.TID 0000.0001) diffKrBL79surf = /* Surface diffusion for Bryan and Lewis 79 ( m^2/s ) */
(PID.TID 0000.0001)                 0.000000000000000E+00
(PID.TID 0000.0001)     ;
(PID.TID 0000.0001) diffKrBL79deep = /* Deep diffusion for Bryan and Lewis 1979 ( m^2/s ) */
(PID.TID 0000.0001)                 0.000000000000000E+00
(PID.TID 0000.0001)     ;
(PID.TID 0000.0001) diffKrBL79scl = /* Depth scale for Bryan and Lewis 1979 ( m ) */
(PID.TID 0000.0001)                 2.000000000000000E+02
(PID.TID 0000.0001)     ;
(PID.TID 0000.0001) diffKrBL79Ho = /* Turning depth for Bryan and Lewis 1979 ( m ) */
(PID.TID 0000.0001)                -2.000000000000000E+03
(PID.TID 0000.0001)     ;
(PID.TID 0000.0001) ivdc_kappa = /* Implicit Vertical Diffusivity for Convection ( m^2/s) */
(PID.TID 0000.0001)                 0.000000000000000E+00
(PID.TID 0000.0001)     ;
(PID.TID 0000.0001) hMixCriteria=  /* Criteria for mixed-layer diagnostic */
(PID.TID 0000.0001)                -8.000000000000000E-01
(PID.TID 0000.0001)     ;
(PID.TID 0000.0001) dRhoSmall =  /* Parameter for mixed-layer diagnostic */
(PID.TID 0000.0001)                 1.000000000000000E-06
(PID.TID 0000.0001)     ;
(PID.TID 0000.0001) hMixSmooth=  /* Smoothing parameter for mixed-layer diagnostic */
(PID.TID 0000.0001)                 0.000000000000000E+00
(PID.TID 0000.0001)     ;
(PID.TID 0000.0001) eosType =  /* Type of Equation of State */
(PID.TID 0000.0001)               'JMD95Z'
(PID.TID 0000.0001)     ;
(PID.TID 0000.0001) HeatCapacity_Cp =  /* Specific heat capacity ( J/kg/K ) */
(PID.TID 0000.0001)                 3.994000000000000E+03
(PID.TID 0000.0001)     ;
(PID.TID 0000.0001) celsius2K = /* 0 degree Celsius converted to Kelvin ( K ) */
(PID.TID 0000.0001)                 2.731500000000000E+02
(PID.TID 0000.0001)     ;
(PID.TID 0000.0001) rhoConst  = /* Reference density (Boussinesq)  ( kg/m^3 ) */
(PID.TID 0000.0001)                 9.998000000000000E+02
(PID.TID 0000.0001)     ;
(PID.TID 0000.0001) rhoFacC = /* normalized Reference density @ cell-Center (-) */
(PID.TID 0000.0001)    35 @  1.000000000000000E+00              /* K =  1: 35 */
(PID.TID 0000.0001)     ;
(PID.TID 0000.0001) rhoFacF = /* normalized Reference density @ W-Interface (-) */
(PID.TID 0000.0001)    36 @  1.000000000000000E+00              /* K =  1: 36 */
(PID.TID 0000.0001)     ;
(PID.TID 0000.0001) rhoConstFresh = /* Fresh-water reference density ( kg/m^3 ) */
(PID.TID 0000.0001)                 9.998000000000000E+02
(PID.TID 0000.0001)     ;
(PID.TID 0000.0001) gravity =   /* Gravitational acceleration ( m/s^2 ) */
(PID.TID 0000.0001)                 9.810000000000000E+00
(PID.TID 0000.0001)     ;
(PID.TID 0000.0001) gBaro =   /* Barotropic gravity ( m/s^2 ) */
(PID.TID 0000.0001)                 9.810000000000000E+00
(PID.TID 0000.0001)     ;
(PID.TID 0000.0001) rotationPeriod =   /* Rotation Period ( s ) */
(PID.TID 0000.0001)                 8.616400000000000E+04
(PID.TID 0000.0001)     ;
(PID.TID 0000.0001) omega =   /* Angular velocity ( rad/s ) */
(PID.TID 0000.0001)                 7.292123516990375E-05
(PID.TID 0000.0001)     ;
(PID.TID 0000.0001) f0 =   /* Reference coriolis parameter ( 1/s ) */
(PID.TID 0000.0001)                 1.000000000000000E-04
(PID.TID 0000.0001)     ;
(PID.TID 0000.0001) beta =   /* Beta ( 1/(m.s) ) */
(PID.TID 0000.0001)                 9.999999999999999E-12
(PID.TID 0000.0001)     ;
(PID.TID 0000.0001) fPrime =   /* Second coriolis parameter ( 1/s ) */
(PID.TID 0000.0001)                 0.000000000000000E+00
(PID.TID 0000.0001)     ;
(PID.TID 0000.0001) rigidLid =   /* Rigid lid on/off flag */
(PID.TID 0000.0001)                   T
(PID.TID 0000.0001)     ;
(PID.TID 0000.0001) implicitFreeSurface =   /* Implicit free surface on/off flag */
(PID.TID 0000.0001)                   F
(PID.TID 0000.0001)     ;
(PID.TID 0000.0001) freeSurfFac =   /* Implicit free surface factor */
(PID.TID 0000.0001)                 0.000000000000000E+00
(PID.TID 0000.0001)     ;
(PID.TID 0000.0001) implicSurfPress =  /* Surface Pressure implicit factor (0-1)*/
(PID.TID 0000.0001)                 1.000000000000000E+00
(PID.TID 0000.0001)     ;
(PID.TID 0000.0001) implicDiv2Dflow =  /* Barot. Flow Div. implicit factor (0-1)*/
(PID.TID 0000.0001)                 1.000000000000000E+00
(PID.TID 0000.0001)     ;
(PID.TID 0000.0001) uniformLin_PhiSurf = /* use uniform Bo_surf on/off flag*/
(PID.TID 0000.0001)                   T
(PID.TID 0000.0001)     ;
(PID.TID 0000.0001) uniformFreeSurfLev = /* free-surface level-index is uniform */
(PID.TID 0000.0001)                   T
(PID.TID 0000.0001)     ;
(PID.TID 0000.0001) hFacMin =   /* minimum partial cell factor (hFac) */
(PID.TID 0000.0001)                 1.000000000000000E+00
(PID.TID 0000.0001)     ;
(PID.TID 0000.0001) hFacMinDr = /* minimum partial cell thickness ( m) */
(PID.TID 0000.0001)                 0.000000000000000E+00
(PID.TID 0000.0001)     ;
(PID.TID 0000.0001) exactConserv =  /* Exact Volume Conservation on/off flag*/
(PID.TID 0000.0001)                   F
(PID.TID 0000.0001)     ;
(PID.TID 0000.0001) linFSConserveTr = /* Tracer correction for Lin Free Surface on/off flag*/
(PID.TID 0000.0001)                   F
(PID.TID 0000.0001)     ;
(PID.TID 0000.0001) nonlinFreeSurf = /* Non-linear Free Surf. options (-1,0,1,2,3)*/
(PID.TID 0000.0001)                       0
(PID.TID 0000.0001)      -1,0= Off ; 1,2,3= On, 2=+rescale gU,gV, 3=+update cg2d solv.
(PID.TID 0000.0001)     ;
(PID.TID 0000.0001) hFacInf =   /* lower threshold for hFac (nonlinFreeSurf only)*/
(PID.TID 0000.0001)                 2.000000000000000E-01
(PID.TID 0000.0001)     ;
(PID.TID 0000.0001) hFacSup =   /* upper threshold for hFac (nonlinFreeSurf only)*/
(PID.TID 0000.0001)                 2.000000000000000E+00
(PID.TID 0000.0001)     ;
(PID.TID 0000.0001) select_rStar = /* r* Vertical coord. options (=0 r coord.; >0 uses r*)*/
(PID.TID 0000.0001)                       0
(PID.TID 0000.0001)     ;
(PID.TID 0000.0001) useRealFreshWaterFlux = /* Real Fresh Water Flux on/off flag*/
(PID.TID 0000.0001)                   F
(PID.TID 0000.0001)     ;
(PID.TID 0000.0001) temp_EvPrRn = /* Temp. of Evap/Prec/R (UNSET=use local T)(oC)*/
(PID.TID 0000.0001)                 1.234567000000000E+05
(PID.TID 0000.0001)     ;
(PID.TID 0000.0001) salt_EvPrRn = /* Salin. of Evap/Prec/R (UNSET=use local S)(psu)*/
(PID.TID 0000.0001)                 0.000000000000000E+00
(PID.TID 0000.0001)     ;
(PID.TID 0000.0001) selectAddFluid = /* option for mass source/sink of fluid (=0: off) */
(PID.TID 0000.0001)                       0
(PID.TID 0000.0001)     ;
(PID.TID 0000.0001) temp_addMass = /* Temp. of addMass array (UNSET=use local T)(oC)*/
(PID.TID 0000.0001)                 1.234567000000000E+05
(PID.TID 0000.0001)     ;
(PID.TID 0000.0001) salt_addMass = /* Salin. of addMass array (UNSET=use local S)(psu)*/
(PID.TID 0000.0001)                 0.000000000000000E+00
(PID.TID 0000.0001)     ;
(PID.TID 0000.0001) convertFW2Salt = /* convert F.W. Flux to Salt Flux (-1=use local S)(psu)*/
(PID.TID 0000.0001)                 3.500000000000000E+01
(PID.TID 0000.0001)     ;
(PID.TID 0000.0001) use3Dsolver = /* use 3-D pressure solver on/off flag */
(PID.TID 0000.0001)                   F
(PID.TID 0000.0001)     ;
(PID.TID 0000.0001) nonHydrostatic =  /* Non-Hydrostatic on/off flag */
(PID.TID 0000.0001)                   F
(PID.TID 0000.0001)     ;
(PID.TID 0000.0001) nh_Am2 = /* Non-Hydrostatic terms scaling factor */
(PID.TID 0000.0001)                 1.000000000000000E+00
(PID.TID 0000.0001)     ;
(PID.TID 0000.0001) implicitNHPress = /* Non-Hyd Pressure implicit factor (0-1)*/
(PID.TID 0000.0001)                 1.000000000000000E+00
(PID.TID 0000.0001)     ;
(PID.TID 0000.0001) selectNHfreeSurf = /* Non-Hyd (free-)Surface option */
(PID.TID 0000.0001)                       0
(PID.TID 0000.0001)     ;
(PID.TID 0000.0001) quasiHydrostatic = /* Quasi-Hydrostatic on/off flag */
(PID.TID 0000.0001)                   F
(PID.TID 0000.0001)     ;
(PID.TID 0000.0001) calc_wVelocity = /* vertical velocity calculation on/off flag */
(PID.TID 0000.0001)                   F
(PID.TID 0000.0001)     ;
(PID.TID 0000.0001) momStepping =  /* Momentum equation on/off flag */
(PID.TID 0000.0001)                   F
(PID.TID 0000.0001)     ;
(PID.TID 0000.0001) vectorInvariantMomentum= /* Vector-Invariant Momentum on/off */
(PID.TID 0000.0001)                   F
(PID.TID 0000.0001)     ;
(PID.TID 0000.0001) momAdvection =  /* Momentum advection on/off flag */
(PID.TID 0000.0001)                   F
(PID.TID 0000.0001)     ;
(PID.TID 0000.0001) momViscosity =  /* Momentum viscosity on/off flag */
(PID.TID 0000.0001)                   F
(PID.TID 0000.0001)     ;
(PID.TID 0000.0001) momImplVertAdv= /* Momentum implicit vert. advection on/off*/
(PID.TID 0000.0001)                   F
(PID.TID 0000.0001)     ;
(PID.TID 0000.0001) implicitViscosity = /* Implicit viscosity on/off flag */
(PID.TID 0000.0001)                   F
(PID.TID 0000.0001)     ;
(PID.TID 0000.0001) metricTerms =  /* metric-Terms on/off flag */
(PID.TID 0000.0001)                   T
(PID.TID 0000.0001)     ;
(PID.TID 0000.0001) useNHMTerms = /* Non-Hydrostatic Metric-Terms on/off */
(PID.TID 0000.0001)                   F
(PID.TID 0000.0001)     ;
(PID.TID 0000.0001) selectCoriMap = /* Coriolis Map options (0,1,2,3)*/
(PID.TID 0000.0001)                       2
(PID.TID 0000.0001)     0= f-Plane ; 1= Beta-Plane ; 2= Spherical ; 3= read from file
(PID.TID 0000.0001)     ;
(PID.TID 0000.0001) use3dCoriolis = /* 3-D Coriolis on/off flag */
(PID.TID 0000.0001)                   F
(PID.TID 0000.0001)     ;
(PID.TID 0000.0001) useCoriolis =  /* Coriolis on/off flag */
(PID.TID 0000.0001)                   F
(PID.TID 0000.0001)     ;
(PID.TID 0000.0001) useCDscheme =  /* CD scheme on/off flag */
(PID.TID 0000.0001)                   F
(PID.TID 0000.0001)     ;
(PID.TID 0000.0001) useEnergyConservingCoriolis= /* Flx-Form Coriolis scheme flag */
(PID.TID 0000.0001)                   F
(PID.TID 0000.0001)     ;
(PID.TID 0000.0001) useJamartWetPoints= /* Coriolis WetPoints method flag */
(PID.TID 0000.0001)                   F
(PID.TID 0000.0001)     ;
(PID.TID 0000.0001) useJamartMomAdv= /* V.I Non-linear terms Jamart flag */
(PID.TID 0000.0001)                   F
(PID.TID 0000.0001)     ;
(PID.TID 0000.0001) useAbsVorticity= /* V.I Works with f+zeta in Coriolis */
(PID.TID 0000.0001)                   F
(PID.TID 0000.0001)     ;
(PID.TID 0000.0001) selectVortScheme= /* V.I Scheme selector for Vorticity-Term */
(PID.TID 0000.0001)               123456789
(PID.TID 0000.0001)    = 0 : enstrophy (Shallow-Water Eq.) conserving scheme by Sadourny, JAS 75
(PID.TID 0000.0001)    = 1 : same as 0 with modified hFac
(PID.TID 0000.0001)    = 2 : energy conserving scheme (used by Sadourny in JAS 75 paper)
(PID.TID 0000.0001)    = 3 : energy (general) and enstrophy (2D, nonDiv.) conserving scheme
(PID.TID 0000.0001)          from Sadourny (Burridge & Haseler, ECMWF Rep.4, 1977)
(PID.TID 0000.0001)     ;
(PID.TID 0000.0001) upwindVorticity= /* V.I Upwind bias vorticity flag */
(PID.TID 0000.0001)                   F
(PID.TID 0000.0001)     ;
(PID.TID 0000.0001) highOrderVorticity= /* V.I High order vort. advect. flag */
(PID.TID 0000.0001)                   F
(PID.TID 0000.0001)     ;
(PID.TID 0000.0001) upwindShear= /* V.I Upwind vertical Shear advection flag */
(PID.TID 0000.0001)                   F
(PID.TID 0000.0001)     ;
(PID.TID 0000.0001) selectKEscheme= /* V.I Kinetic Energy scheme selector */
(PID.TID 0000.0001)                       0
(PID.TID 0000.0001)     ;
(PID.TID 0000.0001) momForcing =  /* Momentum forcing on/off flag */
(PID.TID 0000.0001)                   F
(PID.TID 0000.0001)     ;
(PID.TID 0000.0001) momPressureForcing =  /* Momentum pressure term on/off flag */
(PID.TID 0000.0001)                   F
(PID.TID 0000.0001)     ;
(PID.TID 0000.0001) implicitIntGravWave= /* Implicit Internal Gravity Wave flag */
(PID.TID 0000.0001)                   F
(PID.TID 0000.0001)     ;
(PID.TID 0000.0001) staggerTimeStep =    /* Stagger time stepping on/off flag */
(PID.TID 0000.0001)                   F
(PID.TID 0000.0001)     ;
(PID.TID 0000.0001) doResetHFactors = /* reset thickness factors @ each time-step */
(PID.TID 0000.0001)                   F
(PID.TID 0000.0001)     ;
(PID.TID 0000.0001) multiDimAdvection =  /* enable/disable Multi-Dim Advection */
(PID.TID 0000.0001)                   T
(PID.TID 0000.0001)     ;
(PID.TID 0000.0001) useMultiDimAdvec =   /* Multi-Dim Advection is/is-not used */
(PID.TID 0000.0001)                   T
(PID.TID 0000.0001)     ;
(PID.TID 0000.0001) implicitDiffusion = /* Implicit Diffusion on/off flag */
(PID.TID 0000.0001)                   T
(PID.TID 0000.0001)     ;
(PID.TID 0000.0001) tempStepping =  /* Temperature equation on/off flag */
(PID.TID 0000.0001)                   T
(PID.TID 0000.0001)     ;
(PID.TID 0000.0001) tempAdvection = /* Temperature advection on/off flag */
(PID.TID 0000.0001)                   T
(PID.TID 0000.0001)     ;
(PID.TID 0000.0001) tempImplVertAdv = /* Temp. implicit vert. advection on/off */
(PID.TID 0000.0001)                   F
(PID.TID 0000.0001)     ;
(PID.TID 0000.0001) tempForcing  =  /* Temperature forcing on/off flag */
(PID.TID 0000.0001)                   T
(PID.TID 0000.0001)     ;
(PID.TID 0000.0001) doThetaClimRelax = /* apply SST relaxation on/off flag */
(PID.TID 0000.0001)                   T
(PID.TID 0000.0001)     ;
(PID.TID 0000.0001) tempIsActiveTr = /* Temp. is a dynamically Active Tracer */
(PID.TID 0000.0001)                   F
(PID.TID 0000.0001)     ;
(PID.TID 0000.0001) saltStepping =  /* Salinity equation on/off flag */
(PID.TID 0000.0001)                   F
(PID.TID 0000.0001)     ;
(PID.TID 0000.0001) saltAdvection = /* Salinity advection on/off flag */
(PID.TID 0000.0001)                   F
(PID.TID 0000.0001)     ;
(PID.TID 0000.0001) saltImplVertAdv = /* Sali. implicit vert. advection on/off */
(PID.TID 0000.0001)                   F
(PID.TID 0000.0001)     ;
(PID.TID 0000.0001) saltForcing  =  /* Salinity forcing on/off flag */
(PID.TID 0000.0001)                   F
(PID.TID 0000.0001)     ;
(PID.TID 0000.0001) doSaltClimRelax = /* apply SSS relaxation on/off flag */
(PID.TID 0000.0001)                   F
(PID.TID 0000.0001)     ;
(PID.TID 0000.0001) saltIsActiveTr = /* Salt  is a dynamically Active Tracer */
(PID.TID 0000.0001)                   F
(PID.TID 0000.0001)     ;
(PID.TID 0000.0001)  readBinaryPrec = /* Precision used for reading binary files */
(PID.TID 0000.0001)                      64
(PID.TID 0000.0001)     ;
(PID.TID 0000.0001) writeBinaryPrec = /* Precision used for writing binary files */
(PID.TID 0000.0001)                      64
(PID.TID 0000.0001)     ;
(PID.TID 0000.0001)  globalFiles = /* write "global" (=not per tile) files */
(PID.TID 0000.0001)                   F
(PID.TID 0000.0001)     ;
(PID.TID 0000.0001)  useSingleCpuIO = /* only master MPI process does I/O */
(PID.TID 0000.0001)                   T
(PID.TID 0000.0001)     ;
(PID.TID 0000.0001)  useSingleCpuInput = /* only master process reads input */
(PID.TID 0000.0001)                   T
(PID.TID 0000.0001)     ;
(PID.TID 0000.0001) /* debLev[*]  : level of debug & auxiliary message printing */
(PID.TID 0000.0001) debLevZero =  0 ; /* level of disabled aux. msg printing */
(PID.TID 0000.0001)    debLevA =  1 ; /* level of minimum  aux. msg printing */
(PID.TID 0000.0001)    debLevB =  2 ; /* level of low aux. print (report read-file opening)*/
(PID.TID 0000.0001)    debLevC =  3 ; /* level of moderate debug prt (most pkgs debug msg) */
(PID.TID 0000.0001)    debLevD =  4 ; /* level of enhanced debug prt (add DEBUG_STATS prt) */
(PID.TID 0000.0001)    debLevE =  5 ; /* level of extensive debug printing */
(PID.TID 0000.0001) debugLevel =  /* select debug printing level */
(PID.TID 0000.0001)                       2
(PID.TID 0000.0001)     ;
(PID.TID 0000.0001) //
(PID.TID 0000.0001) // Elliptic solver(s) paramters ( PARM02 in namelist )
(PID.TID 0000.0001) //
(PID.TID 0000.0001) cg2dMaxIters =   /* Upper limit on 2d con. grad iterations  */
(PID.TID 0000.0001)                     300
(PID.TID 0000.0001)     ;
(PID.TID 0000.0001) cg2dChkResFreq =   /* 2d con. grad convergence test frequency */
(PID.TID 0000.0001)                       1
(PID.TID 0000.0001)     ;
(PID.TID 0000.0001) cg2dUseMinResSol= /* use cg2d last-iter(=0) / min-resid.(=1) solution */
(PID.TID 0000.0001)                       0
(PID.TID 0000.0001)     ;
(PID.TID 0000.0001) cg2dTargetResidual =   /* 2d con. grad target residual  */
(PID.TID 0000.0001)                 1.000000000000000E-07
(PID.TID 0000.0001)     ;
(PID.TID 0000.0001) cg2dTargetResWunit =   /* CG2d target residual [W units] */
(PID.TID 0000.0001)                -1.000000000000000E+00
(PID.TID 0000.0001)     ;
(PID.TID 0000.0001) cg2dPreCondFreq =   /* Freq. for updating cg2d preconditioner */
(PID.TID 0000.0001)                       1
(PID.TID 0000.0001)     ;
(PID.TID 0000.0001) useSRCGSolver =  /* use single reduction CG solver(s) */
(PID.TID 0000.0001)                   F
(PID.TID 0000.0001)     ;
(PID.TID 0000.0001) printResidualFreq = /* Freq. for printing CG residual */
(PID.TID 0000.0001)                       0
(PID.TID 0000.0001)     ;
(PID.TID 0000.0001) //
(PID.TID 0000.0001) // Time stepping paramters ( PARM03 in namelist )
(PID.TID 0000.0001) //
(PID.TID 0000.0001) deltaTMom =   /* Momentum equation timestep ( s ) */
(PID.TID 0000.0001)                 3.600000000000000E+03
(PID.TID 0000.0001)     ;
(PID.TID 0000.0001) deltaTFreeSurf = /* FreeSurface equation timestep ( s ) */
(PID.TID 0000.0001)                 3.600000000000000E+03
(PID.TID 0000.0001)     ;
(PID.TID 0000.0001) dTtracerLev =  /* Tracer equation timestep ( s ) */
(PID.TID 0000.0001)    35 @  3.600000000000000E+03              /* K =  1: 35 */
(PID.TID 0000.0001)     ;
(PID.TID 0000.0001) deltaTClock  =   /* Model clock timestep ( s ) */
(PID.TID 0000.0001)                 3.600000000000000E+03
(PID.TID 0000.0001)     ;
(PID.TID 0000.0001) cAdjFreq =   /* Convective adjustment interval ( s ) */
(PID.TID 0000.0001)                 0.000000000000000E+00
(PID.TID 0000.0001)     ;
(PID.TID 0000.0001) momForcingOutAB = /* =1: take Momentum Forcing out of Adams-Bash. stepping */
(PID.TID 0000.0001)                       0
(PID.TID 0000.0001)     ;
(PID.TID 0000.0001) tracForcingOutAB = /* =1: take T,S,pTr Forcing out of Adams-Bash. stepping */
(PID.TID 0000.0001)                       0
(PID.TID 0000.0001)     ;
(PID.TID 0000.0001) momDissip_In_AB = /* put Dissipation Tendency in Adams-Bash. stepping */
(PID.TID 0000.0001)                   T
(PID.TID 0000.0001)     ;
(PID.TID 0000.0001) doAB_onGtGs = /* apply AB on Tendencies (rather than on T,S)*/
(PID.TID 0000.0001)                   T
(PID.TID 0000.0001)     ;
(PID.TID 0000.0001) abEps =   /* Adams-Bashforth-2 stabilizing weight */
(PID.TID 0000.0001)                 1.000000000000000E-01
(PID.TID 0000.0001)     ;
(PID.TID 0000.0001) pickupStrictlyMatch= /* stop if pickup do not strictly match */
(PID.TID 0000.0001)                   T
(PID.TID 0000.0001)     ;
(PID.TID 0000.0001) nIter0   =   /* Run starting timestep number */
(PID.TID 0000.0001)                       0
(PID.TID 0000.0001)     ;
(PID.TID 0000.0001) nTimeSteps = /* Number of timesteps */
(PID.TID 0000.0001)                       4
(PID.TID 0000.0001)     ;
(PID.TID 0000.0001) nEndIter =   /* Run ending timestep number */
(PID.TID 0000.0001)                       4
(PID.TID 0000.0001)     ;
(PID.TID 0000.0001) baseTime =   /* Model base time ( s ) */
(PID.TID 0000.0001)                 0.000000000000000E+00
(PID.TID 0000.0001)     ;
(PID.TID 0000.0001) startTime =  /* Run start time ( s ) */
(PID.TID 0000.0001)                 0.000000000000000E+00
(PID.TID 0000.0001)     ;
(PID.TID 0000.0001) endTime  =   /* Integration ending time ( s ) */
(PID.TID 0000.0001)                 1.440000000000000E+04
(PID.TID 0000.0001)     ;
(PID.TID 0000.0001) pChkPtFreq = /* Permanent restart/pickup file interval ( s ) */
(PID.TID 0000.0001)                 3.110400000000000E+07
(PID.TID 0000.0001)     ;
(PID.TID 0000.0001) chkPtFreq  = /* Rolling restart/pickup file interval ( s ) */
(PID.TID 0000.0001)                 3.110400000000000E+07
(PID.TID 0000.0001)     ;
(PID.TID 0000.0001) pickup_write_mdsio =   /* Model IO flag. */
(PID.TID 0000.0001)                   T
(PID.TID 0000.0001)     ;
(PID.TID 0000.0001) pickup_read_mdsio =   /* Model IO flag. */
(PID.TID 0000.0001)                   T
(PID.TID 0000.0001)     ;
(PID.TID 0000.0001) pickup_write_mnc =   /* Model IO flag. */
(PID.TID 0000.0001)                   F
(PID.TID 0000.0001)     ;
(PID.TID 0000.0001) pickup_read_mnc =   /* Model IO flag. */
(PID.TID 0000.0001)                   F
(PID.TID 0000.0001)     ;
(PID.TID 0000.0001) pickup_write_immed =   /* Model IO flag. */
(PID.TID 0000.0001)                   F
(PID.TID 0000.0001)     ;
(PID.TID 0000.0001) writePickupAtEnd =   /* Model IO flag. */
(PID.TID 0000.0001)                   T
(PID.TID 0000.0001)     ;
(PID.TID 0000.0001) dumpFreq =   /* Model state write out interval ( s ). */
(PID.TID 0000.0001)                 3.600000000000000E+03
(PID.TID 0000.0001)     ;
(PID.TID 0000.0001) dumpInitAndLast= /* write out Initial & Last iter. model state */
(PID.TID 0000.0001)                   T
(PID.TID 0000.0001)     ;
(PID.TID 0000.0001) snapshot_mdsio =   /* Model IO flag. */
(PID.TID 0000.0001)                   F
(PID.TID 0000.0001)     ;
(PID.TID 0000.0001) snapshot_mnc =   /* Model IO flag. */
(PID.TID 0000.0001)                   T
(PID.TID 0000.0001)     ;
(PID.TID 0000.0001) monitorFreq =   /* Monitor output interval ( s ). */
(PID.TID 0000.0001)                 1.000000000000000E+00
(PID.TID 0000.0001)     ;
(PID.TID 0000.0001) monitorSelect = /* select group of variables to monitor */
(PID.TID 0000.0001)                       3
(PID.TID 0000.0001)     ;
(PID.TID 0000.0001) monitor_stdio =   /* Model IO flag. */
(PID.TID 0000.0001)                   T
(PID.TID 0000.0001)     ;
(PID.TID 0000.0001) monitor_mnc =   /* Model IO flag. */
(PID.TID 0000.0001)                   F
(PID.TID 0000.0001)     ;
(PID.TID 0000.0001) externForcingPeriod =   /* forcing period (s) */
(PID.TID 0000.0001)                 2.592000000000000E+06
(PID.TID 0000.0001)     ;
(PID.TID 0000.0001) externForcingCycle =   /* period of the cyle (s). */
(PID.TID 0000.0001)                 3.110400000000000E+07
(PID.TID 0000.0001)     ;
(PID.TID 0000.0001) tauThetaClimRelax =   /* relaxation time scale (s) */
(PID.TID 0000.0001)                 8.640000000000000E+04
(PID.TID 0000.0001)     ;
(PID.TID 0000.0001) tauSaltClimRelax =   /* relaxation time scale (s) */
(PID.TID 0000.0001)                 0.000000000000000E+00
(PID.TID 0000.0001)     ;
(PID.TID 0000.0001) latBandClimRelax =   /* max. Lat. where relaxation */
(PID.TID 0000.0001)                 1.800000000000000E+02
(PID.TID 0000.0001)     ;
(PID.TID 0000.0001) //
(PID.TID 0000.0001) // Gridding paramters ( PARM04 in namelist )
(PID.TID 0000.0001) //
(PID.TID 0000.0001) usingCartesianGrid = /* Cartesian coordinates flag ( True/False ) */
(PID.TID 0000.0001)                   F
(PID.TID 0000.0001)     ;
(PID.TID 0000.0001) usingCylindricalGrid = /* Cylindrical coordinates flag ( True/False ) */
(PID.TID 0000.0001)                   F
(PID.TID 0000.0001)     ;
(PID.TID 0000.0001) usingSphericalPolarGrid = /* Spherical coordinates flag ( True/False ) */
(PID.TID 0000.0001)                   T
(PID.TID 0000.0001)     ;
(PID.TID 0000.0001) usingCurvilinearGrid = /* Curvilinear coordinates flag ( True/False ) */
(PID.TID 0000.0001)                   F
(PID.TID 0000.0001)     ;
(PID.TID 0000.0001) selectSigmaCoord = /* Hybrid-Sigma Vert. Coordinate option */
(PID.TID 0000.0001)                       0
(PID.TID 0000.0001)     ;
(PID.TID 0000.0001) Ro_SeaLevel = /* r(1) ( units of r ==  m ) */
(PID.TID 0000.0001)                 0.000000000000000E+00
(PID.TID 0000.0001)     ;
(PID.TID 0000.0001) rSigmaBnd = /* r/sigma transition ( units of r ==  m ) */
(PID.TID 0000.0001)                 1.234567000000000E+05
(PID.TID 0000.0001)     ;
(PID.TID 0000.0001) rkSign =   /* index orientation relative to vertical coordinate */
(PID.TID 0000.0001)                -1.000000000000000E+00
(PID.TID 0000.0001)     ;
(PID.TID 0000.0001) gravitySign = /* gravity orientation relative to vertical coordinate */
(PID.TID 0000.0001)                -1.000000000000000E+00
(PID.TID 0000.0001)     ;
(PID.TID 0000.0001) mass2rUnit = /* convert mass per unit area [kg/m2] to r-units [m] */
(PID.TID 0000.0001)                 1.000200040008002E-03
(PID.TID 0000.0001)     ;
(PID.TID 0000.0001) rUnit2mass = /* convert r-units [m] to mass per unit area [kg/m2] */
(PID.TID 0000.0001)                 9.998000000000000E+02
(PID.TID 0000.0001)     ;
(PID.TID 0000.0001) drC =   /* C spacing ( units of r ) */
(PID.TID 0000.0001)                 5.000000000000000E+00,      /* K =  1 */
(PID.TID 0000.0001)    13 @  1.000000000000000E+01,             /* K =  2: 14 */
(PID.TID 0000.0001)                 1.250000000000000E+01,      /* K = 15 */
(PID.TID 0000.0001)     4 @  1.500000000000000E+01,             /* K = 16: 19 */
(PID.TID 0000.0001)                 1.750000000000000E+01,      /* K = 20 */
(PID.TID 0000.0001)     3 @  2.000000000000000E+01,             /* K = 21: 23 */
(PID.TID 0000.0001)                 3.500000000000000E+01,      /* K = 24 */
(PID.TID 0000.0001)                 5.000000000000000E+01,      /* K = 25 */
(PID.TID 0000.0001)                 7.500000000000000E+01,      /* K = 26 */
(PID.TID 0000.0001)                 1.250000000000000E+02,      /* K = 27 */
(PID.TID 0000.0001)                 1.500000000000000E+02,      /* K = 28 */
(PID.TID 0000.0001)                 1.750000000000000E+02,      /* K = 29 */
(PID.TID 0000.0001)                 2.500000000000000E+02,      /* K = 30 */
(PID.TID 0000.0001)                 3.500000000000000E+02,      /* K = 31 */
(PID.TID 0000.0001)     2 @  4.000000000000000E+02,             /* K = 32: 33 */
(PID.TID 0000.0001)                 4.500000000000000E+02,      /* K = 34 */
(PID.TID 0000.0001)                 5.000000000000000E+02,      /* K = 35 */
(PID.TID 0000.0001)                 2.500000000000000E+02       /* K = 36 */
(PID.TID 0000.0001)     ;
(PID.TID 0000.0001) drF =   /* W spacing ( units of r ) */
(PID.TID 0000.0001)    14 @  1.000000000000000E+01,             /* K =  1: 14 */
(PID.TID 0000.0001)     5 @  1.500000000000000E+01,             /* K = 15: 19 */
(PID.TID 0000.0001)     4 @  2.000000000000000E+01,             /* K = 20: 23 */
(PID.TID 0000.0001)     2 @  5.000000000000000E+01,             /* K = 24: 25 */
(PID.TID 0000.0001)                 1.000000000000000E+02,      /* K = 26 */
(PID.TID 0000.0001)     2 @  1.500000000000000E+02,             /* K = 27: 28 */
(PID.TID 0000.0001)                 2.000000000000000E+02,      /* K = 29 */
(PID.TID 0000.0001)                 3.000000000000000E+02,      /* K = 30 */
(PID.TID 0000.0001)     3 @  4.000000000000000E+02,             /* K = 31: 33 */
(PID.TID 0000.0001)     2 @  5.000000000000000E+02              /* K = 34: 35 */
(PID.TID 0000.0001)     ;
(PID.TID 0000.0001) delX = /* U spacing ( m - cartesian, degrees - spherical ) */
(PID.TID 0000.0001)                 1.000000000000000E+00       /* I =  1 */
(PID.TID 0000.0001)     ;
(PID.TID 0000.0001) delY = /* V spacing ( m - cartesian, degrees - spherical ) */
(PID.TID 0000.0001)                 1.000000000000000E+00       /* J =  1 */
(PID.TID 0000.0001)     ;
(PID.TID 0000.0001) xgOrigin = /* X-axis origin of West  edge (cartesian: m, lat-lon: deg) */
(PID.TID 0000.0001)                 0.000000000000000E+00
(PID.TID 0000.0001)     ;
(PID.TID 0000.0001) ygOrigin = /* Y-axis origin of South edge (cartesian: m, lat-lon: deg) */
(PID.TID 0000.0001)                -4.500000000000000E+01
(PID.TID 0000.0001)     ;
(PID.TID 0000.0001) rSphere =  /* Radius ( ignored - cartesian, m - spherical ) */
(PID.TID 0000.0001)                 6.370000000000000E+06
(PID.TID 0000.0001)     ;
(PID.TID 0000.0001) deepAtmosphere = /* Deep/Shallow Atmosphere flag (True/False) */
(PID.TID 0000.0001)                   F
(PID.TID 0000.0001)     ;
(PID.TID 0000.0001) xC =  /* xC(:,1,:,1) : P-point X coord ( deg. or m if cartesian) */
(PID.TID 0000.0001)                 5.000000000000000E-01       /* I =  1 */
(PID.TID 0000.0001)     ;
(PID.TID 0000.0001) yC =  /* yC(1,:,1,:) : P-point Y coord ( deg. or m if cartesian) */
(PID.TID 0000.0001)                -4.450000000000000E+01       /* J =  1 */
(PID.TID 0000.0001)     ;
(PID.TID 0000.0001) rcoord = /* P-point R coordinate (  units of r ) */
(PID.TID 0000.0001)                -5.000000000000000E+00,      /* K =  1 */
(PID.TID 0000.0001)                -1.500000000000000E+01,      /* K =  2 */
(PID.TID 0000.0001)                -2.500000000000000E+01,      /* K =  3 */
(PID.TID 0000.0001)                -3.500000000000000E+01,      /* K =  4 */
(PID.TID 0000.0001)                -4.500000000000000E+01,      /* K =  5 */
(PID.TID 0000.0001)                -5.500000000000000E+01,      /* K =  6 */
(PID.TID 0000.0001)                -6.500000000000000E+01,      /* K =  7 */
(PID.TID 0000.0001)                -7.500000000000000E+01,      /* K =  8 */
(PID.TID 0000.0001)                -8.500000000000000E+01,      /* K =  9 */
(PID.TID 0000.0001)                -9.500000000000000E+01,      /* K = 10 */
(PID.TID 0000.0001)                -1.050000000000000E+02,      /* K = 11 */
(PID.TID 0000.0001)                -1.150000000000000E+02,      /* K = 12 */
(PID.TID 0000.0001)                -1.250000000000000E+02,      /* K = 13 */
(PID.TID 0000.0001)                -1.350000000000000E+02,      /* K = 14 */
(PID.TID 0000.0001)                -1.475000000000000E+02,      /* K = 15 */
(PID.TID 0000.0001)                -1.625000000000000E+02,      /* K = 16 */
(PID.TID 0000.0001)                -1.775000000000000E+02,      /* K = 17 */
(PID.TID 0000.0001)                -1.925000000000000E+02,      /* K = 18 */
(PID.TID 0000.0001)                -2.075000000000000E+02,      /* K = 19 */
(PID.TID 0000.0001)                -2.250000000000000E+02,      /* K = 20 */
(PID.TID 0000.0001)                -2.450000000000000E+02,      /* K = 21 */
(PID.TID 0000.0001)                -2.650000000000000E+02,      /* K = 22 */
(PID.TID 0000.0001)                -2.850000000000000E+02,      /* K = 23 */
(PID.TID 0000.0001)                -3.200000000000000E+02,      /* K = 24 */
(PID.TID 0000.0001)                -3.700000000000000E+02,      /* K = 25 */
(PID.TID 0000.0001)                -4.450000000000000E+02,      /* K = 26 */
(PID.TID 0000.0001)                -5.700000000000000E+02,      /* K = 27 */
(PID.TID 0000.0001)                -7.200000000000000E+02,      /* K = 28 */
(PID.TID 0000.0001)                -8.950000000000000E+02,      /* K = 29 */
(PID.TID 0000.0001)                -1.145000000000000E+03,      /* K = 30 */
(PID.TID 0000.0001)                -1.495000000000000E+03,      /* K = 31 */
(PID.TID 0000.0001)                -1.895000000000000E+03,      /* K = 32 */
(PID.TID 0000.0001)                -2.295000000000000E+03,      /* K = 33 */
(PID.TID 0000.0001)                -2.745000000000000E+03,      /* K = 34 */
(PID.TID 0000.0001)                -3.245000000000000E+03       /* K = 35 */
(PID.TID 0000.0001)     ;
(PID.TID 0000.0001) rF =   /* W-Interf. R coordinate (  units of r ) */
(PID.TID 0000.0001)                 0.000000000000000E+00,      /* K =  1 */
(PID.TID 0000.0001)                -1.000000000000000E+01,      /* K =  2 */
(PID.TID 0000.0001)                -2.000000000000000E+01,      /* K =  3 */
(PID.TID 0000.0001)                -3.000000000000000E+01,      /* K =  4 */
(PID.TID 0000.0001)                -4.000000000000000E+01,      /* K =  5 */
(PID.TID 0000.0001)                -5.000000000000000E+01,      /* K =  6 */
(PID.TID 0000.0001)                -6.000000000000000E+01,      /* K =  7 */
(PID.TID 0000.0001)                -7.000000000000000E+01,      /* K =  8 */
(PID.TID 0000.0001)                -8.000000000000000E+01,      /* K =  9 */
(PID.TID 0000.0001)                -9.000000000000000E+01,      /* K = 10 */
(PID.TID 0000.0001)                -1.000000000000000E+02,      /* K = 11 */
(PID.TID 0000.0001)                -1.100000000000000E+02,      /* K = 12 */
(PID.TID 0000.0001)                -1.200000000000000E+02,      /* K = 13 */
(PID.TID 0000.0001)                -1.300000000000000E+02,      /* K = 14 */
(PID.TID 0000.0001)                -1.400000000000000E+02,      /* K = 15 */
(PID.TID 0000.0001)                -1.550000000000000E+02,      /* K = 16 */
(PID.TID 0000.0001)                -1.700000000000000E+02,      /* K = 17 */
(PID.TID 0000.0001)                -1.850000000000000E+02,      /* K = 18 */
(PID.TID 0000.0001)                -2.000000000000000E+02,      /* K = 19 */
(PID.TID 0000.0001)                -2.150000000000000E+02,      /* K = 20 */
(PID.TID 0000.0001)                -2.350000000000000E+02,      /* K = 21 */
(PID.TID 0000.0001)                -2.550000000000000E+02,      /* K = 22 */
(PID.TID 0000.0001)                -2.750000000000000E+02,      /* K = 23 */
(PID.TID 0000.0001)                -2.950000000000000E+02,      /* K = 24 */
(PID.TID 0000.0001)                -3.450000000000000E+02,      /* K = 25 */
(PID.TID 0000.0001)                -3.950000000000000E+02,      /* K = 26 */
(PID.TID 0000.0001)                -4.950000000000000E+02,      /* K = 27 */
(PID.TID 0000.0001)                -6.450000000000000E+02,      /* K = 28 */
(PID.TID 0000.0001)                -7.950000000000000E+02,      /* K = 29 */
(PID.TID 0000.0001)                -9.950000000000000E+02,      /* K = 30 */
(PID.TID 0000.0001)                -1.295000000000000E+03,      /* K = 31 */
(PID.TID 0000.0001)                -1.695000000000000E+03,      /* K = 32 */
(PID.TID 0000.0001)                -2.095000000000000E+03,      /* K = 33 */
(PID.TID 0000.0001)                -2.495000000000000E+03,      /* K = 34 */
(PID.TID 0000.0001)                -2.995000000000000E+03,      /* K = 35 */
(PID.TID 0000.0001)                -3.495000000000000E+03       /* K = 36 */
(PID.TID 0000.0001)     ;
(PID.TID 0000.0001) deepFacC = /* deep-model grid factor @ cell-Center (-) */
(PID.TID 0000.0001)    35 @  1.000000000000000E+00              /* K =  1: 35 */
(PID.TID 0000.0001)     ;
(PID.TID 0000.0001) deepFacF = /* deep-model grid factor @ W-Interface (-) */
(PID.TID 0000.0001)    36 @  1.000000000000000E+00              /* K =  1: 36 */
(PID.TID 0000.0001)     ;
(PID.TID 0000.0001) rVel2wUnit = /* convert units: rVel -> wSpeed (=1 if z-coord)*/
(PID.TID 0000.0001)    36 @  1.000000000000000E+00              /* K =  1: 36 */
(PID.TID 0000.0001)     ;
(PID.TID 0000.0001) wUnit2rVel = /* convert units: wSpeed -> rVel (=1 if z-coord)*/
(PID.TID 0000.0001)    36 @  1.000000000000000E+00              /* K =  1: 36 */
(PID.TID 0000.0001)     ;
(PID.TID 0000.0001) dBdrRef = /* Vertical grad. of reference buoyancy [(m/s/r)^2] */
(PID.TID 0000.0001)                 0.000000000000000E+00,      /* K =  1 */
(PID.TID 0000.0001)                 1.232578190459821E-04,      /* K =  2 */
(PID.TID 0000.0001)                 3.063957957303617E-05,      /* K =  3 */
(PID.TID 0000.0001)                 1.521320422054373E-04,      /* K =  4 */
(PID.TID 0000.0001)                 3.021271930223580E-05,      /* K =  5 */
(PID.TID 0000.0001)                 1.499903428890670E-04,      /* K =  6 */
(PID.TID 0000.0001)                 1.186737265074332E-04,      /* K =  7 */
(PID.TID 0000.0001)                 1.466841384627423E-04,      /* K =  8 */
(PID.TID 0000.0001)                 8.712618931102987E-05,      /* K =  9 */
(PID.TID 0000.0001)                 1.151380441308261E-04,      /* K = 10 */
(PID.TID 0000.0001)                 5.712979717883684E-05,      /* K = 11 */
(PID.TID 0000.0001)                 8.515049872565506E-05,      /* K = 12 */
(PID.TID 0000.0001)                 8.448721842774896E-05,      /* K = 13 */
(PID.TID 0000.0001)                 1.116043428725511E-04,      /* K = 14 */
(PID.TID 0000.0001)                 1.102373809396796E-04,      /* K = 15 */
(PID.TID 0000.0001)                 1.798828639202717E-04,      /* K = 16 */
(PID.TID 0000.0001)                 1.918102676980872E-04,      /* K = 17 */
(PID.TID 0000.0001)                 1.853506120896664E-04,      /* K = 18 */
(PID.TID 0000.0001)                 1.787791674911888E-04,      /* K = 19 */
(PID.TID 0000.0001)                 9.455522998141848E-05,      /* K = 20 */
(PID.TID 0000.0001)                 1.259231836379978E-04,      /* K = 21 */
(PID.TID 0000.0001)                 9.923620256554768E-05,      /* K = 22 */
(PID.TID 0000.0001)                 8.531935398693722E-05,      /* K = 23 */
(PID.TID 0000.0001)                 4.137475825384700E-05,      /* K = 24 */
(PID.TID 0000.0001)                 5.930109718499171E-05,      /* K = 25 */
(PID.TID 0000.0001)                 3.689739454308316E-05,      /* K = 26 */
(PID.TID 0000.0001)                 3.215311288275425E-05,      /* K = 27 */
(PID.TID 0000.0001)                 2.340106578013931E-05,      /* K = 28 */
(PID.TID 0000.0001)                 8.957465806881803E-06,      /* K = 29 */
(PID.TID 0000.0001)                 2.029141226789735E-06,      /* K = 30 */
(PID.TID 0000.0001)                 0.000000000000000E+00,      /* K = 31 */
(PID.TID 0000.0001)                 1.052869956707729E-06,      /* K = 32 */
(PID.TID 0000.0001)                 1.465965950004292E-06,      /* K = 33 */
(PID.TID 0000.0001)                 6.817081889333135E-07,      /* K = 34 */
(PID.TID 0000.0001)                 6.544800624285541E-07       /* K = 35 */
(PID.TID 0000.0001)     ;
(PID.TID 0000.0001) rotateGrid = /* use rotated grid ( True/False ) */
(PID.TID 0000.0001)                   F
(PID.TID 0000.0001)     ;
(PID.TID 0000.0001) phiEuler = /* Euler angle, rotation about original z-coordinate [rad] */
(PID.TID 0000.0001)                 0.000000000000000E+00
(PID.TID 0000.0001)     ;
(PID.TID 0000.0001) thetaEuler = /* Euler angle, rotation about new x-coordinate [rad] */
(PID.TID 0000.0001)                 0.000000000000000E+00
(PID.TID 0000.0001)     ;
(PID.TID 0000.0001) psiEuler = /* Euler angle, rotation about new z-coordinate [rad] */
(PID.TID 0000.0001)                 0.000000000000000E+00
(PID.TID 0000.0001)     ;
(PID.TID 0000.0001) dxF =  /* dxF(:,1,:,1) ( units: m ) */
(PID.TID 0000.0001)                 7.929738280416872E+04       /* I =  1 */
(PID.TID 0000.0001)     ;
(PID.TID 0000.0001) dxF =  /* dxF(1,:,1,:) ( units: m ) */
(PID.TID 0000.0001)                 7.929738280416872E+04       /* J =  1 */
(PID.TID 0000.0001)     ;
(PID.TID 0000.0001) dyF =  /* dyF(:,1,:,1) ( units: m ) */
(PID.TID 0000.0001)                 1.111774733520388E+05       /* I =  1 */
(PID.TID 0000.0001)     ;
(PID.TID 0000.0001) dyF =  /* dyF(1,:,1,:) ( units: m ) */
(PID.TID 0000.0001)                 1.111774733520388E+05       /* J =  1 */
(PID.TID 0000.0001)     ;
(PID.TID 0000.0001) dxG =  /* dxG(:,1,:,1) ( units: m ) */
(PID.TID 0000.0001)                 7.861434532241331E+04       /* I =  1 */
(PID.TID 0000.0001)     ;
(PID.TID 0000.0001) dxG =  /* dxG(1,:,1,:) ( units: m ) */
(PID.TID 0000.0001)                 7.861434532241331E+04       /* J =  1 */
(PID.TID 0000.0001)     ;
(PID.TID 0000.0001) dyG =  /* dyG(:,1,:,1) ( units: m ) */
(PID.TID 0000.0001)                 1.111774733520388E+05       /* I =  1 */
(PID.TID 0000.0001)     ;
(PID.TID 0000.0001) dyG =  /* dyG(1,:,1,:) ( units: m ) */
(PID.TID 0000.0001)                 1.111774733520388E+05       /* J =  1 */
(PID.TID 0000.0001)     ;
(PID.TID 0000.0001) dxC =  /* dxC(:,1,:,1) ( units: m ) */
(PID.TID 0000.0001)                 7.929738280416872E+04       /* I =  1 */
(PID.TID 0000.0001)     ;
(PID.TID 0000.0001) dxC =  /* dxC(1,:,1,:) ( units: m ) */
(PID.TID 0000.0001)                 7.929738280416872E+04       /* J =  1 */
(PID.TID 0000.0001)     ;
(PID.TID 0000.0001) dyC =  /* dyC(:,1,:,1) ( units: m ) */
(PID.TID 0000.0001)                 1.111774733520388E+05       /* I =  1 */
(PID.TID 0000.0001)     ;
(PID.TID 0000.0001) dyC =  /* dyC(1,:,1,:) ( units: m ) */
(PID.TID 0000.0001)                 1.111774733520388E+05       /* J =  1 */
(PID.TID 0000.0001)     ;
(PID.TID 0000.0001) dxV =  /* dxV(:,1,:,1) ( units: m ) */
(PID.TID 0000.0001)                 7.861434532241331E+04       /* I =  1 */
(PID.TID 0000.0001)     ;
(PID.TID 0000.0001) dxV =  /* dxV(1,:,1,:) ( units: m ) */
(PID.TID 0000.0001)                 7.861434532241331E+04       /* J =  1 */
(PID.TID 0000.0001)     ;
(PID.TID 0000.0001) dyU =  /* dyU(:,1,:,1) ( units: m ) */
(PID.TID 0000.0001)                 1.111774733520388E+05       /* I =  1 */
(PID.TID 0000.0001)     ;
(PID.TID 0000.0001) dyU =  /* dyU(1,:,1,:) ( units: m ) */
(PID.TID 0000.0001)                 1.111774733520388E+05       /* J =  1 */
(PID.TID 0000.0001)     ;
(PID.TID 0000.0001) rA  =  /* rA (:,1,:,1) ( units: m^2 ) */
(PID.TID 0000.0001)                 8.815970766841537E+09       /* I =  1 */
(PID.TID 0000.0001)     ;
(PID.TID 0000.0001) rA  =  /* rA (1,:,1,:) ( units: m^2 ) */
(PID.TID 0000.0001)                 8.815970766841537E+09       /* J =  1 */
(PID.TID 0000.0001)     ;
(PID.TID 0000.0001) rAw =  /* rAw(:,1,:,1) ( units: m^2 ) */
(PID.TID 0000.0001)                 8.815970766841537E+09       /* I =  1 */
(PID.TID 0000.0001)     ;
(PID.TID 0000.0001) rAw =  /* rAw(1,:,1,:) ( units: m^2 ) */
(PID.TID 0000.0001)                 8.815970766841537E+09       /* J =  1 */
(PID.TID 0000.0001)     ;
(PID.TID 0000.0001) rAs =  /* rAs(:,1,:,1) ( units: m^2 ) */
(PID.TID 0000.0001)                 8.740033349251320E+09       /* I =  1 */
(PID.TID 0000.0001)     ;
(PID.TID 0000.0001) rAs =  /* rAs(1,:,1,:) ( units: m^2 ) */
(PID.TID 0000.0001)                 8.740033349251320E+09       /* J =  1 */
(PID.TID 0000.0001)     ;
(PID.TID 0000.0001) globalArea = /* Integrated horizontal Area (m^2) */
(PID.TID 0000.0001)                 8.815970766841537E+09
(PID.TID 0000.0001)     ;
(PID.TID 0000.0001) // =======================================================
(PID.TID 0000.0001) // End of Model config. summary
(PID.TID 0000.0001) // =======================================================
(PID.TID 0000.0001) 
(PID.TID 0000.0001) == Packages configuration : Check & print summary ==
(PID.TID 0000.0001) 
(PID.TID 0000.0001) KPP_CHECK: #define ALLOW_KPP
(PID.TID 0000.0001) PTRACERS_CHECK: #define ALLOW_PTRACERS
(PID.TID 0000.0001) // ===================================
(PID.TID 0000.0001) // PTRACERS parameters
(PID.TID 0000.0001) // ===================================
(PID.TID 0000.0001) PTRACERS_numInUse = /* number of tracers */
(PID.TID 0000.0001)                     233
(PID.TID 0000.0001)     ;
(PID.TID 0000.0001) PTRACERS_Iter0 = /* timestep number when tracers are initialized */
(PID.TID 0000.0001)                       0
(PID.TID 0000.0001)     ;
(PID.TID 0000.0001) PTRACERS_startAllTrc =/* all tracers start @ startTime */
(PID.TID 0000.0001)                   T
(PID.TID 0000.0001)     ;
(PID.TID 0000.0001) PTRACERS_doAB_onGpTr =/* apply AB on Tendencies (rather than on Tracers) */
(PID.TID 0000.0001)                   T
(PID.TID 0000.0001)     ;
(PID.TID 0000.0001) PTRACERS_addSrelax2EmP =/* add Salt relaxation to EmP */
(PID.TID 0000.0001)                   F
(PID.TID 0000.0001)     ;
(PID.TID 0000.0001) PTRACERS_dTLev =   /* Ptracer timestep ( s ) */
(PID.TID 0000.0001)    35 @  3.600000000000000E+03              /* K =  1: 35 */
(PID.TID 0000.0001)     ;
(PID.TID 0000.0001) PTRACERS_monitorFreq = /* Frequency^-1 for monitor output (s) */
(PID.TID 0000.0001)                 1.000000000000000E+00
(PID.TID 0000.0001)     ;
(PID.TID 0000.0001) PTRACERS_dumpFreq = /* Frequency^-1 for snapshot output (s) */
(PID.TID 0000.0001)                 3.600000000000000E+03
(PID.TID 0000.0001)     ;
(PID.TID 0000.0001) PTRACERS_taveFreq = /* Frequency^-1 for time-Aver. output (s) */
(PID.TID 0000.0001)                 2.592000000000000E+06
(PID.TID 0000.0001)     ;
(PID.TID 0000.0001) PTRACERS_useRecords = /* all tracers in 1 file */
(PID.TID 0000.0001)                   F
(PID.TID 0000.0001)     ;
(PID.TID 0000.0001) PTRACERS_timeave_mnc = /* use MNC for Tave output */
(PID.TID 0000.0001)                   T
(PID.TID 0000.0001)     ;
(PID.TID 0000.0001) PTRACERS_snapshot_mnc = /* use MNC for snapshot output */
(PID.TID 0000.0001)                   T
(PID.TID 0000.0001)     ;
(PID.TID 0000.0001) PTRACERS_pickup_write_mnc = /* use MNC for writing pickups */
(PID.TID 0000.0001)                   F
(PID.TID 0000.0001)     ;
(PID.TID 0000.0001) PTRACERS_pickup_read_mnc = /* use MNC for reading pickups */
(PID.TID 0000.0001)                   F
(PID.TID 0000.0001)     ;
(PID.TID 0000.0001)  -----------------------------------
(PID.TID 0000.0001)  tracer number :    1
(PID.TID 0000.0001) PTRACERS_names = /* Tracer short name */
(PID.TID 0000.0001)               'DIC'
(PID.TID 0000.0001)     ;
(PID.TID 0000.0001) PTRACERS_long_names = /* Tracer long name */
(PID.TID 0000.0001)               ''
(PID.TID 0000.0001)     ;
(PID.TID 0000.0001) PTRACERS_ioLabel = /* tracer IO Label */
(PID.TID 0000.0001)               '01'
(PID.TID 0000.0001)     ;
(PID.TID 0000.0001) PTRACERS_advScheme = /* Advection Scheme */
(PID.TID 0000.0001)                      33
(PID.TID 0000.0001)     ;
(PID.TID 0000.0001) PTRACERS_SOM_Advection = /* tracer uses SOM advection scheme */
(PID.TID 0000.0001)                   F
(PID.TID 0000.0001)     ;
(PID.TID 0000.0001) PTRACERS_ImplVertAdv = /* implicit vert. advection flag */
(PID.TID 0000.0001)                   F
(PID.TID 0000.0001)     ;
(PID.TID 0000.0001) PTRACERS_MultiDimAdv = /* tracer uses Multi-Dim advection */
(PID.TID 0000.0001)                   T
(PID.TID 0000.0001)     ;
(PID.TID 0000.0001) PTRACERS_AdamsBashGtr = /* apply AB on tracer tendency */
(PID.TID 0000.0001)                   F
(PID.TID 0000.0001)     ;
(PID.TID 0000.0001) PTRACERS_AdamsBash_Tr = /* apply AB on passive tracer */
(PID.TID 0000.0001)                   F
(PID.TID 0000.0001)     ;
(PID.TID 0000.0001) PTRACERS_diffKh = /* Laplacian Diffusivity */
(PID.TID 0000.0001)                 0.000000000000000E+00
(PID.TID 0000.0001)     ;
(PID.TID 0000.0001) PTRACERS_diffK4 = /* Biharmonic Diffusivity */
(PID.TID 0000.0001)                 0.000000000000000E+00
(PID.TID 0000.0001)     ;
(PID.TID 0000.0001) PTRACERS_diffKrNr = /* Vertical Diffusivity */
(PID.TID 0000.0001)    35 @  1.000000000000000E-05              /* K =  1: 35 */
(PID.TID 0000.0001)     ;
(PID.TID 0000.0001) PTRACERS_useGMRedi = /* apply GM-Redi */
(PID.TID 0000.0001)                   F
(PID.TID 0000.0001)     ;
(PID.TID 0000.0001) PTRACERS_useDWNSLP = /* apply DOWN-SLOPE Flow */
(PID.TID 0000.0001)                   F
(PID.TID 0000.0001)     ;
(PID.TID 0000.0001) PTRACERS_useKPP = /* apply KPP scheme */
(PID.TID 0000.0001)                   T
(PID.TID 0000.0001)     ;
(PID.TID 0000.0001) PTRACERS_ref = /* Reference vertical profile */
(PID.TID 0000.0001)    35 @  0.000000000000000E+00              /* K =  1: 35 */
(PID.TID 0000.0001)     ;
(PID.TID 0000.0001) PTRACERS_EvPrRn =/* tracer conc. in Evap. & Rain */
(PID.TID 0000.0001)                 1.234567000000000E+05
(PID.TID 0000.0001)     ;
(PID.TID 0000.0001)  -----------------------------------
(PID.TID 0000.0001)  tracer number :    2
(PID.TID 0000.0001) PTRACERS_names = /* Tracer short name */
(PID.TID 0000.0001)               'NH4'
(PID.TID 0000.0001)     ;
(PID.TID 0000.0001) PTRACERS_long_names = /* Tracer long name */
(PID.TID 0000.0001)               ''
(PID.TID 0000.0001)     ;
(PID.TID 0000.0001) PTRACERS_ioLabel = /* tracer IO Label */
(PID.TID 0000.0001)               '02'
(PID.TID 0000.0001)     ;
(PID.TID 0000.0001) PTRACERS_advScheme = /* Advection Scheme */
(PID.TID 0000.0001)                      33
(PID.TID 0000.0001)     ;
(PID.TID 0000.0001) PTRACERS_SOM_Advection = /* tracer uses SOM advection scheme */
(PID.TID 0000.0001)                   F
(PID.TID 0000.0001)     ;
(PID.TID 0000.0001) PTRACERS_ImplVertAdv = /* implicit vert. advection flag */
(PID.TID 0000.0001)                   F
(PID.TID 0000.0001)     ;
(PID.TID 0000.0001) PTRACERS_MultiDimAdv = /* tracer uses Multi-Dim advection */
(PID.TID 0000.0001)                   T
(PID.TID 0000.0001)     ;
(PID.TID 0000.0001) PTRACERS_AdamsBashGtr = /* apply AB on tracer tendency */
(PID.TID 0000.0001)                   F
(PID.TID 0000.0001)     ;
(PID.TID 0000.0001) PTRACERS_AdamsBash_Tr = /* apply AB on passive tracer */
(PID.TID 0000.0001)                   F
(PID.TID 0000.0001)     ;
(PID.TID 0000.0001) PTRACERS_diffKh = /* Laplacian Diffusivity */
(PID.TID 0000.0001)                 0.000000000000000E+00
(PID.TID 0000.0001)     ;
(PID.TID 0000.0001) PTRACERS_diffK4 = /* Biharmonic Diffusivity */
(PID.TID 0000.0001)                 0.000000000000000E+00
(PID.TID 0000.0001)     ;
(PID.TID 0000.0001) PTRACERS_diffKrNr = /* Vertical Diffusivity */
(PID.TID 0000.0001)    35 @  1.000000000000000E-05              /* K =  1: 35 */
(PID.TID 0000.0001)     ;
(PID.TID 0000.0001) PTRACERS_useGMRedi = /* apply GM-Redi */
(PID.TID 0000.0001)                   F
(PID.TID 0000.0001)     ;
(PID.TID 0000.0001) PTRACERS_useDWNSLP = /* apply DOWN-SLOPE Flow */
(PID.TID 0000.0001)                   F
(PID.TID 0000.0001)     ;
(PID.TID 0000.0001) PTRACERS_useKPP = /* apply KPP scheme */
(PID.TID 0000.0001)                   T
(PID.TID 0000.0001)     ;
(PID.TID 0000.0001) PTRACERS_ref = /* Reference vertical profile */
(PID.TID 0000.0001)    35 @  0.000000000000000E+00              /* K =  1: 35 */
(PID.TID 0000.0001)     ;
(PID.TID 0000.0001) PTRACERS_EvPrRn =/* tracer conc. in Evap. & Rain */
(PID.TID 0000.0001)                 1.234567000000000E+05
(PID.TID 0000.0001)     ;
(PID.TID 0000.0001)  -----------------------------------
(PID.TID 0000.0001)  tracer number :    3
(PID.TID 0000.0001) PTRACERS_names = /* Tracer short name */
(PID.TID 0000.0001)               'NO2'
(PID.TID 0000.0001)     ;
(PID.TID 0000.0001) PTRACERS_long_names = /* Tracer long name */
(PID.TID 0000.0001)               ''
(PID.TID 0000.0001)     ;
(PID.TID 0000.0001) PTRACERS_ioLabel = /* tracer IO Label */
(PID.TID 0000.0001)               '03'
(PID.TID 0000.0001)     ;
(PID.TID 0000.0001) PTRACERS_advScheme = /* Advection Scheme */
(PID.TID 0000.0001)                      33
(PID.TID 0000.0001)     ;
(PID.TID 0000.0001) PTRACERS_SOM_Advection = /* tracer uses SOM advection scheme */
(PID.TID 0000.0001)                   F
(PID.TID 0000.0001)     ;
(PID.TID 0000.0001) PTRACERS_ImplVertAdv = /* implicit vert. advection flag */
(PID.TID 0000.0001)                   F
(PID.TID 0000.0001)     ;
(PID.TID 0000.0001) PTRACERS_MultiDimAdv = /* tracer uses Multi-Dim advection */
(PID.TID 0000.0001)                   T
(PID.TID 0000.0001)     ;
(PID.TID 0000.0001) PTRACERS_AdamsBashGtr = /* apply AB on tracer tendency */
(PID.TID 0000.0001)                   F
(PID.TID 0000.0001)     ;
(PID.TID 0000.0001) PTRACERS_AdamsBash_Tr = /* apply AB on passive tracer */
(PID.TID 0000.0001)                   F
(PID.TID 0000.0001)     ;
(PID.TID 0000.0001) PTRACERS_diffKh = /* Laplacian Diffusivity */
(PID.TID 0000.0001)                 0.000000000000000E+00
(PID.TID 0000.0001)     ;
(PID.TID 0000.0001) PTRACERS_diffK4 = /* Biharmonic Diffusivity */
(PID.TID 0000.0001)                 0.000000000000000E+00
(PID.TID 0000.0001)     ;
(PID.TID 0000.0001) PTRACERS_diffKrNr = /* Vertical Diffusivity */
(PID.TID 0000.0001)    35 @  1.000000000000000E-05              /* K =  1: 35 */
(PID.TID 0000.0001)     ;
(PID.TID 0000.0001) PTRACERS_useGMRedi = /* apply GM-Redi */
(PID.TID 0000.0001)                   F
(PID.TID 0000.0001)     ;
(PID.TID 0000.0001) PTRACERS_useDWNSLP = /* apply DOWN-SLOPE Flow */
(PID.TID 0000.0001)                   F
(PID.TID 0000.0001)     ;
(PID.TID 0000.0001) PTRACERS_useKPP = /* apply KPP scheme */
(PID.TID 0000.0001)                   T
(PID.TID 0000.0001)     ;
(PID.TID 0000.0001) PTRACERS_ref = /* Reference vertical profile */
(PID.TID 0000.0001)    35 @  0.000000000000000E+00              /* K =  1: 35 */
(PID.TID 0000.0001)     ;
(PID.TID 0000.0001) PTRACERS_EvPrRn =/* tracer conc. in Evap. & Rain */
(PID.TID 0000.0001)                 1.234567000000000E+05
(PID.TID 0000.0001)     ;
(PID.TID 0000.0001)  -----------------------------------
(PID.TID 0000.0001)  tracer number :    4
(PID.TID 0000.0001) PTRACERS_names = /* Tracer short name */
(PID.TID 0000.0001)               'NO3'
(PID.TID 0000.0001)     ;
(PID.TID 0000.0001) PTRACERS_long_names = /* Tracer long name */
(PID.TID 0000.0001)               ''
(PID.TID 0000.0001)     ;
(PID.TID 0000.0001) PTRACERS_ioLabel = /* tracer IO Label */
(PID.TID 0000.0001)               '04'
(PID.TID 0000.0001)     ;
(PID.TID 0000.0001) PTRACERS_advScheme = /* Advection Scheme */
(PID.TID 0000.0001)                      33
(PID.TID 0000.0001)     ;
(PID.TID 0000.0001) PTRACERS_SOM_Advection = /* tracer uses SOM advection scheme */
(PID.TID 0000.0001)                   F
(PID.TID 0000.0001)     ;
(PID.TID 0000.0001) PTRACERS_ImplVertAdv = /* implicit vert. advection flag */
(PID.TID 0000.0001)                   F
(PID.TID 0000.0001)     ;
(PID.TID 0000.0001) PTRACERS_MultiDimAdv = /* tracer uses Multi-Dim advection */
(PID.TID 0000.0001)                   T
(PID.TID 0000.0001)     ;
(PID.TID 0000.0001) PTRACERS_AdamsBashGtr = /* apply AB on tracer tendency */
(PID.TID 0000.0001)                   F
(PID.TID 0000.0001)     ;
(PID.TID 0000.0001) PTRACERS_AdamsBash_Tr = /* apply AB on passive tracer */
(PID.TID 0000.0001)                   F
(PID.TID 0000.0001)     ;
(PID.TID 0000.0001) PTRACERS_diffKh = /* Laplacian Diffusivity */
(PID.TID 0000.0001)                 0.000000000000000E+00
(PID.TID 0000.0001)     ;
(PID.TID 0000.0001) PTRACERS_diffK4 = /* Biharmonic Diffusivity */
(PID.TID 0000.0001)                 0.000000000000000E+00
(PID.TID 0000.0001)     ;
(PID.TID 0000.0001) PTRACERS_diffKrNr = /* Vertical Diffusivity */
(PID.TID 0000.0001)    35 @  1.000000000000000E-05              /* K =  1: 35 */
(PID.TID 0000.0001)     ;
(PID.TID 0000.0001) PTRACERS_useGMRedi = /* apply GM-Redi */
(PID.TID 0000.0001)                   F
(PID.TID 0000.0001)     ;
(PID.TID 0000.0001) PTRACERS_useDWNSLP = /* apply DOWN-SLOPE Flow */
(PID.TID 0000.0001)                   F
(PID.TID 0000.0001)     ;
(PID.TID 0000.0001) PTRACERS_useKPP = /* apply KPP scheme */
(PID.TID 0000.0001)                   T
(PID.TID 0000.0001)     ;
(PID.TID 0000.0001) PTRACERS_ref = /* Reference vertical profile */
(PID.TID 0000.0001)    35 @  0.000000000000000E+00              /* K =  1: 35 */
(PID.TID 0000.0001)     ;
(PID.TID 0000.0001) PTRACERS_EvPrRn =/* tracer conc. in Evap. & Rain */
(PID.TID 0000.0001)                 1.234567000000000E+05
(PID.TID 0000.0001)     ;
(PID.TID 0000.0001)  -----------------------------------
(PID.TID 0000.0001)  tracer number :    5
(PID.TID 0000.0001) PTRACERS_names = /* Tracer short name */
(PID.TID 0000.0001)               'PO4'
(PID.TID 0000.0001)     ;
(PID.TID 0000.0001) PTRACERS_long_names = /* Tracer long name */
(PID.TID 0000.0001)               ''
(PID.TID 0000.0001)     ;
(PID.TID 0000.0001) PTRACERS_ioLabel = /* tracer IO Label */
(PID.TID 0000.0001)               '05'
(PID.TID 0000.0001)     ;
(PID.TID 0000.0001) PTRACERS_advScheme = /* Advection Scheme */
(PID.TID 0000.0001)                      33
(PID.TID 0000.0001)     ;
(PID.TID 0000.0001) PTRACERS_SOM_Advection = /* tracer uses SOM advection scheme */
(PID.TID 0000.0001)                   F
(PID.TID 0000.0001)     ;
(PID.TID 0000.0001) PTRACERS_ImplVertAdv = /* implicit vert. advection flag */
(PID.TID 0000.0001)                   F
(PID.TID 0000.0001)     ;
(PID.TID 0000.0001) PTRACERS_MultiDimAdv = /* tracer uses Multi-Dim advection */
(PID.TID 0000.0001)                   T
(PID.TID 0000.0001)     ;
(PID.TID 0000.0001) PTRACERS_AdamsBashGtr = /* apply AB on tracer tendency */
(PID.TID 0000.0001)                   F
(PID.TID 0000.0001)     ;
(PID.TID 0000.0001) PTRACERS_AdamsBash_Tr = /* apply AB on passive tracer */
(PID.TID 0000.0001)                   F
(PID.TID 0000.0001)     ;
(PID.TID 0000.0001) PTRACERS_diffKh = /* Laplacian Diffusivity */
(PID.TID 0000.0001)                 0.000000000000000E+00
(PID.TID 0000.0001)     ;
(PID.TID 0000.0001) PTRACERS_diffK4 = /* Biharmonic Diffusivity */
(PID.TID 0000.0001)                 0.000000000000000E+00
(PID.TID 0000.0001)     ;
(PID.TID 0000.0001) PTRACERS_diffKrNr = /* Vertical Diffusivity */
(PID.TID 0000.0001)    35 @  1.000000000000000E-05              /* K =  1: 35 */
(PID.TID 0000.0001)     ;
(PID.TID 0000.0001) PTRACERS_useGMRedi = /* apply GM-Redi */
(PID.TID 0000.0001)                   F
(PID.TID 0000.0001)     ;
(PID.TID 0000.0001) PTRACERS_useDWNSLP = /* apply DOWN-SLOPE Flow */
(PID.TID 0000.0001)                   F
(PID.TID 0000.0001)     ;
(PID.TID 0000.0001) PTRACERS_useKPP = /* apply KPP scheme */
(PID.TID 0000.0001)                   T
(PID.TID 0000.0001)     ;
(PID.TID 0000.0001) PTRACERS_ref = /* Reference vertical profile */
(PID.TID 0000.0001)    35 @  0.000000000000000E+00              /* K =  1: 35 */
(PID.TID 0000.0001)     ;
(PID.TID 0000.0001) PTRACERS_EvPrRn =/* tracer conc. in Evap. & Rain */
(PID.TID 0000.0001)                 1.234567000000000E+05
(PID.TID 0000.0001)     ;
(PID.TID 0000.0001)  -----------------------------------
(PID.TID 0000.0001)  tracer number :    6
(PID.TID 0000.0001) PTRACERS_names = /* Tracer short name */
(PID.TID 0000.0001)               'SiO2'
(PID.TID 0000.0001)     ;
(PID.TID 0000.0001) PTRACERS_long_names = /* Tracer long name */
(PID.TID 0000.0001)               ''
(PID.TID 0000.0001)     ;
(PID.TID 0000.0001) PTRACERS_ioLabel = /* tracer IO Label */
(PID.TID 0000.0001)               '06'
(PID.TID 0000.0001)     ;
(PID.TID 0000.0001) PTRACERS_advScheme = /* Advection Scheme */
(PID.TID 0000.0001)                      33
(PID.TID 0000.0001)     ;
(PID.TID 0000.0001) PTRACERS_SOM_Advection = /* tracer uses SOM advection scheme */
(PID.TID 0000.0001)                   F
(PID.TID 0000.0001)     ;
(PID.TID 0000.0001) PTRACERS_ImplVertAdv = /* implicit vert. advection flag */
(PID.TID 0000.0001)                   F
(PID.TID 0000.0001)     ;
(PID.TID 0000.0001) PTRACERS_MultiDimAdv = /* tracer uses Multi-Dim advection */
(PID.TID 0000.0001)                   T
(PID.TID 0000.0001)     ;
(PID.TID 0000.0001) PTRACERS_AdamsBashGtr = /* apply AB on tracer tendency */
(PID.TID 0000.0001)                   F
(PID.TID 0000.0001)     ;
(PID.TID 0000.0001) PTRACERS_AdamsBash_Tr = /* apply AB on passive tracer */
(PID.TID 0000.0001)                   F
(PID.TID 0000.0001)     ;
(PID.TID 0000.0001) PTRACERS_diffKh = /* Laplacian Diffusivity */
(PID.TID 0000.0001)                 0.000000000000000E+00
(PID.TID 0000.0001)     ;
(PID.TID 0000.0001) PTRACERS_diffK4 = /* Biharmonic Diffusivity */
(PID.TID 0000.0001)                 0.000000000000000E+00
(PID.TID 0000.0001)     ;
(PID.TID 0000.0001) PTRACERS_diffKrNr = /* Vertical Diffusivity */
(PID.TID 0000.0001)    35 @  1.000000000000000E-05              /* K =  1: 35 */
(PID.TID 0000.0001)     ;
(PID.TID 0000.0001) PTRACERS_useGMRedi = /* apply GM-Redi */
(PID.TID 0000.0001)                   F
(PID.TID 0000.0001)     ;
(PID.TID 0000.0001) PTRACERS_useDWNSLP = /* apply DOWN-SLOPE Flow */
(PID.TID 0000.0001)                   F
(PID.TID 0000.0001)     ;
(PID.TID 0000.0001) PTRACERS_useKPP = /* apply KPP scheme */
(PID.TID 0000.0001)                   T
(PID.TID 0000.0001)     ;
(PID.TID 0000.0001) PTRACERS_ref = /* Reference vertical profile */
(PID.TID 0000.0001)    35 @  0.000000000000000E+00              /* K =  1: 35 */
(PID.TID 0000.0001)     ;
(PID.TID 0000.0001) PTRACERS_EvPrRn =/* tracer conc. in Evap. & Rain */
(PID.TID 0000.0001)                 1.234567000000000E+05
(PID.TID 0000.0001)     ;
(PID.TID 0000.0001)  -----------------------------------
(PID.TID 0000.0001)  tracer number :    7
(PID.TID 0000.0001) PTRACERS_names = /* Tracer short name */
(PID.TID 0000.0001)               'FeT'
(PID.TID 0000.0001)     ;
(PID.TID 0000.0001) PTRACERS_long_names = /* Tracer long name */
(PID.TID 0000.0001)               ''
(PID.TID 0000.0001)     ;
(PID.TID 0000.0001) PTRACERS_ioLabel = /* tracer IO Label */
(PID.TID 0000.0001)               '07'
(PID.TID 0000.0001)     ;
(PID.TID 0000.0001) PTRACERS_advScheme = /* Advection Scheme */
(PID.TID 0000.0001)                      33
(PID.TID 0000.0001)     ;
(PID.TID 0000.0001) PTRACERS_SOM_Advection = /* tracer uses SOM advection scheme */
(PID.TID 0000.0001)                   F
(PID.TID 0000.0001)     ;
(PID.TID 0000.0001) PTRACERS_ImplVertAdv = /* implicit vert. advection flag */
(PID.TID 0000.0001)                   F
(PID.TID 0000.0001)     ;
(PID.TID 0000.0001) PTRACERS_MultiDimAdv = /* tracer uses Multi-Dim advection */
(PID.TID 0000.0001)                   T
(PID.TID 0000.0001)     ;
(PID.TID 0000.0001) PTRACERS_AdamsBashGtr = /* apply AB on tracer tendency */
(PID.TID 0000.0001)                   F
(PID.TID 0000.0001)     ;
(PID.TID 0000.0001) PTRACERS_AdamsBash_Tr = /* apply AB on passive tracer */
(PID.TID 0000.0001)                   F
(PID.TID 0000.0001)     ;
(PID.TID 0000.0001) PTRACERS_diffKh = /* Laplacian Diffusivity */
(PID.TID 0000.0001)                 0.000000000000000E+00
(PID.TID 0000.0001)     ;
(PID.TID 0000.0001) PTRACERS_diffK4 = /* Biharmonic Diffusivity */
(PID.TID 0000.0001)                 0.000000000000000E+00
(PID.TID 0000.0001)     ;
(PID.TID 0000.0001) PTRACERS_diffKrNr = /* Vertical Diffusivity */
(PID.TID 0000.0001)    35 @  1.000000000000000E-05              /* K =  1: 35 */
(PID.TID 0000.0001)     ;
(PID.TID 0000.0001) PTRACERS_useGMRedi = /* apply GM-Redi */
(PID.TID 0000.0001)                   F
(PID.TID 0000.0001)     ;
(PID.TID 0000.0001) PTRACERS_useDWNSLP = /* apply DOWN-SLOPE Flow */
(PID.TID 0000.0001)                   F
(PID.TID 0000.0001)     ;
(PID.TID 0000.0001) PTRACERS_useKPP = /* apply KPP scheme */
(PID.TID 0000.0001)                   T
(PID.TID 0000.0001)     ;
(PID.TID 0000.0001) PTRACERS_ref = /* Reference vertical profile */
(PID.TID 0000.0001)    35 @  0.000000000000000E+00              /* K =  1: 35 */
(PID.TID 0000.0001)     ;
(PID.TID 0000.0001) PTRACERS_EvPrRn =/* tracer conc. in Evap. & Rain */
(PID.TID 0000.0001)                 1.234567000000000E+05
(PID.TID 0000.0001)     ;
(PID.TID 0000.0001)  -----------------------------------
(PID.TID 0000.0001)  tracer number :    8
(PID.TID 0000.0001) PTRACERS_names = /* Tracer short name */
(PID.TID 0000.0001)               'DOC'
(PID.TID 0000.0001)     ;
(PID.TID 0000.0001) PTRACERS_long_names = /* Tracer long name */
(PID.TID 0000.0001)               ''
(PID.TID 0000.0001)     ;
(PID.TID 0000.0001) PTRACERS_ioLabel = /* tracer IO Label */
(PID.TID 0000.0001)               '08'
(PID.TID 0000.0001)     ;
(PID.TID 0000.0001) PTRACERS_advScheme = /* Advection Scheme */
(PID.TID 0000.0001)                      33
(PID.TID 0000.0001)     ;
(PID.TID 0000.0001) PTRACERS_SOM_Advection = /* tracer uses SOM advection scheme */
(PID.TID 0000.0001)                   F
(PID.TID 0000.0001)     ;
(PID.TID 0000.0001) PTRACERS_ImplVertAdv = /* implicit vert. advection flag */
(PID.TID 0000.0001)                   F
(PID.TID 0000.0001)     ;
(PID.TID 0000.0001) PTRACERS_MultiDimAdv = /* tracer uses Multi-Dim advection */
(PID.TID 0000.0001)                   T
(PID.TID 0000.0001)     ;
(PID.TID 0000.0001) PTRACERS_AdamsBashGtr = /* apply AB on tracer tendency */
(PID.TID 0000.0001)                   F
(PID.TID 0000.0001)     ;
(PID.TID 0000.0001) PTRACERS_AdamsBash_Tr = /* apply AB on passive tracer */
(PID.TID 0000.0001)                   F
(PID.TID 0000.0001)     ;
(PID.TID 0000.0001) PTRACERS_diffKh = /* Laplacian Diffusivity */
(PID.TID 0000.0001)                 0.000000000000000E+00
(PID.TID 0000.0001)     ;
(PID.TID 0000.0001) PTRACERS_diffK4 = /* Biharmonic Diffusivity */
(PID.TID 0000.0001)                 0.000000000000000E+00
(PID.TID 0000.0001)     ;
(PID.TID 0000.0001) PTRACERS_diffKrNr = /* Vertical Diffusivity */
(PID.TID 0000.0001)    35 @  1.000000000000000E-05              /* K =  1: 35 */
(PID.TID 0000.0001)     ;
(PID.TID 0000.0001) PTRACERS_useGMRedi = /* apply GM-Redi */
(PID.TID 0000.0001)                   F
(PID.TID 0000.0001)     ;
(PID.TID 0000.0001) PTRACERS_useDWNSLP = /* apply DOWN-SLOPE Flow */
(PID.TID 0000.0001)                   F
(PID.TID 0000.0001)     ;
(PID.TID 0000.0001) PTRACERS_useKPP = /* apply KPP scheme */
(PID.TID 0000.0001)                   T
(PID.TID 0000.0001)     ;
(PID.TID 0000.0001) PTRACERS_ref = /* Reference vertical profile */
(PID.TID 0000.0001)    35 @  0.000000000000000E+00              /* K =  1: 35 */
(PID.TID 0000.0001)     ;
(PID.TID 0000.0001) PTRACERS_EvPrRn =/* tracer conc. in Evap. & Rain */
(PID.TID 0000.0001)                 1.234567000000000E+05
(PID.TID 0000.0001)     ;
(PID.TID 0000.0001)  -----------------------------------
(PID.TID 0000.0001)  tracer number :    9
(PID.TID 0000.0001) PTRACERS_names = /* Tracer short name */
(PID.TID 0000.0001)               'DON'
(PID.TID 0000.0001)     ;
(PID.TID 0000.0001) PTRACERS_long_names = /* Tracer long name */
(PID.TID 0000.0001)               ''
(PID.TID 0000.0001)     ;
(PID.TID 0000.0001) PTRACERS_ioLabel = /* tracer IO Label */
(PID.TID 0000.0001)               '09'
(PID.TID 0000.0001)     ;
(PID.TID 0000.0001) PTRACERS_advScheme = /* Advection Scheme */
(PID.TID 0000.0001)                      33
(PID.TID 0000.0001)     ;
(PID.TID 0000.0001) PTRACERS_SOM_Advection = /* tracer uses SOM advection scheme */
(PID.TID 0000.0001)                   F
(PID.TID 0000.0001)     ;
(PID.TID 0000.0001) PTRACERS_ImplVertAdv = /* implicit vert. advection flag */
(PID.TID 0000.0001)                   F
(PID.TID 0000.0001)     ;
(PID.TID 0000.0001) PTRACERS_MultiDimAdv = /* tracer uses Multi-Dim advection */
(PID.TID 0000.0001)                   T
(PID.TID 0000.0001)     ;
(PID.TID 0000.0001) PTRACERS_AdamsBashGtr = /* apply AB on tracer tendency */
(PID.TID 0000.0001)                   F
(PID.TID 0000.0001)     ;
(PID.TID 0000.0001) PTRACERS_AdamsBash_Tr = /* apply AB on passive tracer */
(PID.TID 0000.0001)                   F
(PID.TID 0000.0001)     ;
(PID.TID 0000.0001) PTRACERS_diffKh = /* Laplacian Diffusivity */
(PID.TID 0000.0001)                 0.000000000000000E+00
(PID.TID 0000.0001)     ;
(PID.TID 0000.0001) PTRACERS_diffK4 = /* Biharmonic Diffusivity */
(PID.TID 0000.0001)                 0.000000000000000E+00
(PID.TID 0000.0001)     ;
(PID.TID 0000.0001) PTRACERS_diffKrNr = /* Vertical Diffusivity */
(PID.TID 0000.0001)    35 @  1.000000000000000E-05              /* K =  1: 35 */
(PID.TID 0000.0001)     ;
(PID.TID 0000.0001) PTRACERS_useGMRedi = /* apply GM-Redi */
(PID.TID 0000.0001)                   F
(PID.TID 0000.0001)     ;
(PID.TID 0000.0001) PTRACERS_useDWNSLP = /* apply DOWN-SLOPE Flow */
(PID.TID 0000.0001)                   F
(PID.TID 0000.0001)     ;
(PID.TID 0000.0001) PTRACERS_useKPP = /* apply KPP scheme */
(PID.TID 0000.0001)                   T
(PID.TID 0000.0001)     ;
(PID.TID 0000.0001) PTRACERS_ref = /* Reference vertical profile */
(PID.TID 0000.0001)    35 @  0.000000000000000E+00              /* K =  1: 35 */
(PID.TID 0000.0001)     ;
(PID.TID 0000.0001) PTRACERS_EvPrRn =/* tracer conc. in Evap. & Rain */
(PID.TID 0000.0001)                 1.234567000000000E+05
(PID.TID 0000.0001)     ;
(PID.TID 0000.0001)  -----------------------------------
(PID.TID 0000.0001)  tracer number :   10
(PID.TID 0000.0001) PTRACERS_names = /* Tracer short name */
(PID.TID 0000.0001)               'DOP'
(PID.TID 0000.0001)     ;
(PID.TID 0000.0001) PTRACERS_long_names = /* Tracer long name */
(PID.TID 0000.0001)               ''
(PID.TID 0000.0001)     ;
(PID.TID 0000.0001) PTRACERS_ioLabel = /* tracer IO Label */
(PID.TID 0000.0001)               '10'
(PID.TID 0000.0001)     ;
(PID.TID 0000.0001) PTRACERS_advScheme = /* Advection Scheme */
(PID.TID 0000.0001)                      33
(PID.TID 0000.0001)     ;
(PID.TID 0000.0001) PTRACERS_SOM_Advection = /* tracer uses SOM advection scheme */
(PID.TID 0000.0001)                   F
(PID.TID 0000.0001)     ;
(PID.TID 0000.0001) PTRACERS_ImplVertAdv = /* implicit vert. advection flag */
(PID.TID 0000.0001)                   F
(PID.TID 0000.0001)     ;
(PID.TID 0000.0001) PTRACERS_MultiDimAdv = /* tracer uses Multi-Dim advection */
(PID.TID 0000.0001)                   T
(PID.TID 0000.0001)     ;
(PID.TID 0000.0001) PTRACERS_AdamsBashGtr = /* apply AB on tracer tendency */
(PID.TID 0000.0001)                   F
(PID.TID 0000.0001)     ;
(PID.TID 0000.0001) PTRACERS_AdamsBash_Tr = /* apply AB on passive tracer */
(PID.TID 0000.0001)                   F
(PID.TID 0000.0001)     ;
(PID.TID 0000.0001) PTRACERS_diffKh = /* Laplacian Diffusivity */
(PID.TID 0000.0001)                 0.000000000000000E+00
(PID.TID 0000.0001)     ;
(PID.TID 0000.0001) PTRACERS_diffK4 = /* Biharmonic Diffusivity */
(PID.TID 0000.0001)                 0.000000000000000E+00
(PID.TID 0000.0001)     ;
(PID.TID 0000.0001) PTRACERS_diffKrNr = /* Vertical Diffusivity */
(PID.TID 0000.0001)    35 @  1.000000000000000E-05              /* K =  1: 35 */
(PID.TID 0000.0001)     ;
(PID.TID 0000.0001) PTRACERS_useGMRedi = /* apply GM-Redi */
(PID.TID 0000.0001)                   F
(PID.TID 0000.0001)     ;
(PID.TID 0000.0001) PTRACERS_useDWNSLP = /* apply DOWN-SLOPE Flow */
(PID.TID 0000.0001)                   F
(PID.TID 0000.0001)     ;
(PID.TID 0000.0001) PTRACERS_useKPP = /* apply KPP scheme */
(PID.TID 0000.0001)                   T
(PID.TID 0000.0001)     ;
(PID.TID 0000.0001) PTRACERS_ref = /* Reference vertical profile */
(PID.TID 0000.0001)    35 @  0.000000000000000E+00              /* K =  1: 35 */
(PID.TID 0000.0001)     ;
(PID.TID 0000.0001) PTRACERS_EvPrRn =/* tracer conc. in Evap. & Rain */
(PID.TID 0000.0001)                 1.234567000000000E+05
(PID.TID 0000.0001)     ;
(PID.TID 0000.0001)  -----------------------------------
(PID.TID 0000.0001)  tracer number :   11
(PID.TID 0000.0001) PTRACERS_names = /* Tracer short name */
(PID.TID 0000.0001)               'DOFe'
(PID.TID 0000.0001)     ;
(PID.TID 0000.0001) PTRACERS_long_names = /* Tracer long name */
(PID.TID 0000.0001)               ''
(PID.TID 0000.0001)     ;
(PID.TID 0000.0001) PTRACERS_ioLabel = /* tracer IO Label */
(PID.TID 0000.0001)               '11'
(PID.TID 0000.0001)     ;
(PID.TID 0000.0001) PTRACERS_advScheme = /* Advection Scheme */
(PID.TID 0000.0001)                      33
(PID.TID 0000.0001)     ;
(PID.TID 0000.0001) PTRACERS_SOM_Advection = /* tracer uses SOM advection scheme */
(PID.TID 0000.0001)                   F
(PID.TID 0000.0001)     ;
(PID.TID 0000.0001) PTRACERS_ImplVertAdv = /* implicit vert. advection flag */
(PID.TID 0000.0001)                   F
(PID.TID 0000.0001)     ;
(PID.TID 0000.0001) PTRACERS_MultiDimAdv = /* tracer uses Multi-Dim advection */
(PID.TID 0000.0001)                   T
(PID.TID 0000.0001)     ;
(PID.TID 0000.0001) PTRACERS_AdamsBashGtr = /* apply AB on tracer tendency */
(PID.TID 0000.0001)                   F
(PID.TID 0000.0001)     ;
(PID.TID 0000.0001) PTRACERS_AdamsBash_Tr = /* apply AB on passive tracer */
(PID.TID 0000.0001)                   F
(PID.TID 0000.0001)     ;
(PID.TID 0000.0001) PTRACERS_diffKh = /* Laplacian Diffusivity */
(PID.TID 0000.0001)                 0.000000000000000E+00
(PID.TID 0000.0001)     ;
(PID.TID 0000.0001) PTRACERS_diffK4 = /* Biharmonic Diffusivity */
(PID.TID 0000.0001)                 0.000000000000000E+00
(PID.TID 0000.0001)     ;
(PID.TID 0000.0001) PTRACERS_diffKrNr = /* Vertical Diffusivity */
(PID.TID 0000.0001)    35 @  1.000000000000000E-05              /* K =  1: 35 */
(PID.TID 0000.0001)     ;
(PID.TID 0000.0001) PTRACERS_useGMRedi = /* apply GM-Redi */
(PID.TID 0000.0001)                   F
(PID.TID 0000.0001)     ;
(PID.TID 0000.0001) PTRACERS_useDWNSLP = /* apply DOWN-SLOPE Flow */
(PID.TID 0000.0001)                   F
(PID.TID 0000.0001)     ;
(PID.TID 0000.0001) PTRACERS_useKPP = /* apply KPP scheme */
(PID.TID 0000.0001)                   T
(PID.TID 0000.0001)     ;
(PID.TID 0000.0001) PTRACERS_ref = /* Reference vertical profile */
(PID.TID 0000.0001)    35 @  0.000000000000000E+00              /* K =  1: 35 */
(PID.TID 0000.0001)     ;
(PID.TID 0000.0001) PTRACERS_EvPrRn =/* tracer conc. in Evap. & Rain */
(PID.TID 0000.0001)                 1.234567000000000E+05
(PID.TID 0000.0001)     ;
(PID.TID 0000.0001)  -----------------------------------
(PID.TID 0000.0001)  tracer number :   12
(PID.TID 0000.0001) PTRACERS_names = /* Tracer short name */
(PID.TID 0000.0001)               'POC'
(PID.TID 0000.0001)     ;
(PID.TID 0000.0001) PTRACERS_long_names = /* Tracer long name */
(PID.TID 0000.0001)               ''
(PID.TID 0000.0001)     ;
(PID.TID 0000.0001) PTRACERS_ioLabel = /* tracer IO Label */
(PID.TID 0000.0001)               '12'
(PID.TID 0000.0001)     ;
(PID.TID 0000.0001) PTRACERS_advScheme = /* Advection Scheme */
(PID.TID 0000.0001)                      33
(PID.TID 0000.0001)     ;
(PID.TID 0000.0001) PTRACERS_SOM_Advection = /* tracer uses SOM advection scheme */
(PID.TID 0000.0001)                   F
(PID.TID 0000.0001)     ;
(PID.TID 0000.0001) PTRACERS_ImplVertAdv = /* implicit vert. advection flag */
(PID.TID 0000.0001)                   F
(PID.TID 0000.0001)     ;
(PID.TID 0000.0001) PTRACERS_MultiDimAdv = /* tracer uses Multi-Dim advection */
(PID.TID 0000.0001)                   T
(PID.TID 0000.0001)     ;
(PID.TID 0000.0001) PTRACERS_AdamsBashGtr = /* apply AB on tracer tendency */
(PID.TID 0000.0001)                   F
(PID.TID 0000.0001)     ;
(PID.TID 0000.0001) PTRACERS_AdamsBash_Tr = /* apply AB on passive tracer */
(PID.TID 0000.0001)                   F
(PID.TID 0000.0001)     ;
(PID.TID 0000.0001) PTRACERS_diffKh = /* Laplacian Diffusivity */
(PID.TID 0000.0001)                 0.000000000000000E+00
(PID.TID 0000.0001)     ;
(PID.TID 0000.0001) PTRACERS_diffK4 = /* Biharmonic Diffusivity */
(PID.TID 0000.0001)                 0.000000000000000E+00
(PID.TID 0000.0001)     ;
(PID.TID 0000.0001) PTRACERS_diffKrNr = /* Vertical Diffusivity */
(PID.TID 0000.0001)    35 @  1.000000000000000E-05              /* K =  1: 35 */
(PID.TID 0000.0001)     ;
(PID.TID 0000.0001) PTRACERS_useGMRedi = /* apply GM-Redi */
(PID.TID 0000.0001)                   F
(PID.TID 0000.0001)     ;
(PID.TID 0000.0001) PTRACERS_useDWNSLP = /* apply DOWN-SLOPE Flow */
(PID.TID 0000.0001)                   F
(PID.TID 0000.0001)     ;
(PID.TID 0000.0001) PTRACERS_useKPP = /* apply KPP scheme */
(PID.TID 0000.0001)                   T
(PID.TID 0000.0001)     ;
(PID.TID 0000.0001) PTRACERS_ref = /* Reference vertical profile */
(PID.TID 0000.0001)    35 @  0.000000000000000E+00              /* K =  1: 35 */
(PID.TID 0000.0001)     ;
(PID.TID 0000.0001) PTRACERS_EvPrRn =/* tracer conc. in Evap. & Rain */
(PID.TID 0000.0001)                 1.234567000000000E+05
(PID.TID 0000.0001)     ;
(PID.TID 0000.0001)  -----------------------------------
(PID.TID 0000.0001)  tracer number :   13
(PID.TID 0000.0001) PTRACERS_names = /* Tracer short name */
(PID.TID 0000.0001)               'PON'
(PID.TID 0000.0001)     ;
(PID.TID 0000.0001) PTRACERS_long_names = /* Tracer long name */
(PID.TID 0000.0001)               ''
(PID.TID 0000.0001)     ;
(PID.TID 0000.0001) PTRACERS_ioLabel = /* tracer IO Label */
(PID.TID 0000.0001)               '13'
(PID.TID 0000.0001)     ;
(PID.TID 0000.0001) PTRACERS_advScheme = /* Advection Scheme */
(PID.TID 0000.0001)                      33
(PID.TID 0000.0001)     ;
(PID.TID 0000.0001) PTRACERS_SOM_Advection = /* tracer uses SOM advection scheme */
(PID.TID 0000.0001)                   F
(PID.TID 0000.0001)     ;
(PID.TID 0000.0001) PTRACERS_ImplVertAdv = /* implicit vert. advection flag */
(PID.TID 0000.0001)                   F
(PID.TID 0000.0001)     ;
(PID.TID 0000.0001) PTRACERS_MultiDimAdv = /* tracer uses Multi-Dim advection */
(PID.TID 0000.0001)                   T
(PID.TID 0000.0001)     ;
(PID.TID 0000.0001) PTRACERS_AdamsBashGtr = /* apply AB on tracer tendency */
(PID.TID 0000.0001)                   F
(PID.TID 0000.0001)     ;
(PID.TID 0000.0001) PTRACERS_AdamsBash_Tr = /* apply AB on passive tracer */
(PID.TID 0000.0001)                   F
(PID.TID 0000.0001)     ;
(PID.TID 0000.0001) PTRACERS_diffKh = /* Laplacian Diffusivity */
(PID.TID 0000.0001)                 0.000000000000000E+00
(PID.TID 0000.0001)     ;
(PID.TID 0000.0001) PTRACERS_diffK4 = /* Biharmonic Diffusivity */
(PID.TID 0000.0001)                 0.000000000000000E+00
(PID.TID 0000.0001)     ;
(PID.TID 0000.0001) PTRACERS_diffKrNr = /* Vertical Diffusivity */
(PID.TID 0000.0001)    35 @  1.000000000000000E-05              /* K =  1: 35 */
(PID.TID 0000.0001)     ;
(PID.TID 0000.0001) PTRACERS_useGMRedi = /* apply GM-Redi */
(PID.TID 0000.0001)                   F
(PID.TID 0000.0001)     ;
(PID.TID 0000.0001) PTRACERS_useDWNSLP = /* apply DOWN-SLOPE Flow */
(PID.TID 0000.0001)                   F
(PID.TID 0000.0001)     ;
(PID.TID 0000.0001) PTRACERS_useKPP = /* apply KPP scheme */
(PID.TID 0000.0001)                   T
(PID.TID 0000.0001)     ;
(PID.TID 0000.0001) PTRACERS_ref = /* Reference vertical profile */
(PID.TID 0000.0001)    35 @  0.000000000000000E+00              /* K =  1: 35 */
(PID.TID 0000.0001)     ;
(PID.TID 0000.0001) PTRACERS_EvPrRn =/* tracer conc. in Evap. & Rain */
(PID.TID 0000.0001)                 1.234567000000000E+05
(PID.TID 0000.0001)     ;
(PID.TID 0000.0001)  -----------------------------------
(PID.TID 0000.0001)  tracer number :   14
(PID.TID 0000.0001) PTRACERS_names = /* Tracer short name */
(PID.TID 0000.0001)               'POP'
(PID.TID 0000.0001)     ;
(PID.TID 0000.0001) PTRACERS_long_names = /* Tracer long name */
(PID.TID 0000.0001)               ''
(PID.TID 0000.0001)     ;
(PID.TID 0000.0001) PTRACERS_ioLabel = /* tracer IO Label */
(PID.TID 0000.0001)               '14'
(PID.TID 0000.0001)     ;
(PID.TID 0000.0001) PTRACERS_advScheme = /* Advection Scheme */
(PID.TID 0000.0001)                      33
(PID.TID 0000.0001)     ;
(PID.TID 0000.0001) PTRACERS_SOM_Advection = /* tracer uses SOM advection scheme */
(PID.TID 0000.0001)                   F
(PID.TID 0000.0001)     ;
(PID.TID 0000.0001) PTRACERS_ImplVertAdv = /* implicit vert. advection flag */
(PID.TID 0000.0001)                   F
(PID.TID 0000.0001)     ;
(PID.TID 0000.0001) PTRACERS_MultiDimAdv = /* tracer uses Multi-Dim advection */
(PID.TID 0000.0001)                   T
(PID.TID 0000.0001)     ;
(PID.TID 0000.0001) PTRACERS_AdamsBashGtr = /* apply AB on tracer tendency */
(PID.TID 0000.0001)                   F
(PID.TID 0000.0001)     ;
(PID.TID 0000.0001) PTRACERS_AdamsBash_Tr = /* apply AB on passive tracer */
(PID.TID 0000.0001)                   F
(PID.TID 0000.0001)     ;
(PID.TID 0000.0001) PTRACERS_diffKh = /* Laplacian Diffusivity */
(PID.TID 0000.0001)                 0.000000000000000E+00
(PID.TID 0000.0001)     ;
(PID.TID 0000.0001) PTRACERS_diffK4 = /* Biharmonic Diffusivity */
(PID.TID 0000.0001)                 0.000000000000000E+00
(PID.TID 0000.0001)     ;
(PID.TID 0000.0001) PTRACERS_diffKrNr = /* Vertical Diffusivity */
(PID.TID 0000.0001)    35 @  1.000000000000000E-05              /* K =  1: 35 */
(PID.TID 0000.0001)     ;
(PID.TID 0000.0001) PTRACERS_useGMRedi = /* apply GM-Redi */
(PID.TID 0000.0001)                   F
(PID.TID 0000.0001)     ;
(PID.TID 0000.0001) PTRACERS_useDWNSLP = /* apply DOWN-SLOPE Flow */
(PID.TID 0000.0001)                   F
(PID.TID 0000.0001)     ;
(PID.TID 0000.0001) PTRACERS_useKPP = /* apply KPP scheme */
(PID.TID 0000.0001)                   T
(PID.TID 0000.0001)     ;
(PID.TID 0000.0001) PTRACERS_ref = /* Reference vertical profile */
(PID.TID 0000.0001)    35 @  0.000000000000000E+00              /* K =  1: 35 */
(PID.TID 0000.0001)     ;
(PID.TID 0000.0001) PTRACERS_EvPrRn =/* tracer conc. in Evap. & Rain */
(PID.TID 0000.0001)                 1.234567000000000E+05
(PID.TID 0000.0001)     ;
(PID.TID 0000.0001)  -----------------------------------
(PID.TID 0000.0001)  tracer number :   15
(PID.TID 0000.0001) PTRACERS_names = /* Tracer short name */
(PID.TID 0000.0001)               'POSi'
(PID.TID 0000.0001)     ;
(PID.TID 0000.0001) PTRACERS_long_names = /* Tracer long name */
(PID.TID 0000.0001)               ''
(PID.TID 0000.0001)     ;
(PID.TID 0000.0001) PTRACERS_ioLabel = /* tracer IO Label */
(PID.TID 0000.0001)               '15'
(PID.TID 0000.0001)     ;
(PID.TID 0000.0001) PTRACERS_advScheme = /* Advection Scheme */
(PID.TID 0000.0001)                      33
(PID.TID 0000.0001)     ;
(PID.TID 0000.0001) PTRACERS_SOM_Advection = /* tracer uses SOM advection scheme */
(PID.TID 0000.0001)                   F
(PID.TID 0000.0001)     ;
(PID.TID 0000.0001) PTRACERS_ImplVertAdv = /* implicit vert. advection flag */
(PID.TID 0000.0001)                   F
(PID.TID 0000.0001)     ;
(PID.TID 0000.0001) PTRACERS_MultiDimAdv = /* tracer uses Multi-Dim advection */
(PID.TID 0000.0001)                   T
(PID.TID 0000.0001)     ;
(PID.TID 0000.0001) PTRACERS_AdamsBashGtr = /* apply AB on tracer tendency */
(PID.TID 0000.0001)                   F
(PID.TID 0000.0001)     ;
(PID.TID 0000.0001) PTRACERS_AdamsBash_Tr = /* apply AB on passive tracer */
(PID.TID 0000.0001)                   F
(PID.TID 0000.0001)     ;
(PID.TID 0000.0001) PTRACERS_diffKh = /* Laplacian Diffusivity */
(PID.TID 0000.0001)                 0.000000000000000E+00
(PID.TID 0000.0001)     ;
(PID.TID 0000.0001) PTRACERS_diffK4 = /* Biharmonic Diffusivity */
(PID.TID 0000.0001)                 0.000000000000000E+00
(PID.TID 0000.0001)     ;
(PID.TID 0000.0001) PTRACERS_diffKrNr = /* Vertical Diffusivity */
(PID.TID 0000.0001)    35 @  1.000000000000000E-05              /* K =  1: 35 */
(PID.TID 0000.0001)     ;
(PID.TID 0000.0001) PTRACERS_useGMRedi = /* apply GM-Redi */
(PID.TID 0000.0001)                   F
(PID.TID 0000.0001)     ;
(PID.TID 0000.0001) PTRACERS_useDWNSLP = /* apply DOWN-SLOPE Flow */
(PID.TID 0000.0001)                   F
(PID.TID 0000.0001)     ;
(PID.TID 0000.0001) PTRACERS_useKPP = /* apply KPP scheme */
(PID.TID 0000.0001)                   T
(PID.TID 0000.0001)     ;
(PID.TID 0000.0001) PTRACERS_ref = /* Reference vertical profile */
(PID.TID 0000.0001)    35 @  0.000000000000000E+00              /* K =  1: 35 */
(PID.TID 0000.0001)     ;
(PID.TID 0000.0001) PTRACERS_EvPrRn =/* tracer conc. in Evap. & Rain */
(PID.TID 0000.0001)                 1.234567000000000E+05
(PID.TID 0000.0001)     ;
(PID.TID 0000.0001)  -----------------------------------
(PID.TID 0000.0001)  tracer number :   16
(PID.TID 0000.0001) PTRACERS_names = /* Tracer short name */
(PID.TID 0000.0001)               'POFe'
(PID.TID 0000.0001)     ;
(PID.TID 0000.0001) PTRACERS_long_names = /* Tracer long name */
(PID.TID 0000.0001)               ''
(PID.TID 0000.0001)     ;
(PID.TID 0000.0001) PTRACERS_ioLabel = /* tracer IO Label */
(PID.TID 0000.0001)               '16'
(PID.TID 0000.0001)     ;
(PID.TID 0000.0001) PTRACERS_advScheme = /* Advection Scheme */
(PID.TID 0000.0001)                      33
(PID.TID 0000.0001)     ;
(PID.TID 0000.0001) PTRACERS_SOM_Advection = /* tracer uses SOM advection scheme */
(PID.TID 0000.0001)                   F
(PID.TID 0000.0001)     ;
(PID.TID 0000.0001) PTRACERS_ImplVertAdv = /* implicit vert. advection flag */
(PID.TID 0000.0001)                   F
(PID.TID 0000.0001)     ;
(PID.TID 0000.0001) PTRACERS_MultiDimAdv = /* tracer uses Multi-Dim advection */
(PID.TID 0000.0001)                   T
(PID.TID 0000.0001)     ;
(PID.TID 0000.0001) PTRACERS_AdamsBashGtr = /* apply AB on tracer tendency */
(PID.TID 0000.0001)                   F
(PID.TID 0000.0001)     ;
(PID.TID 0000.0001) PTRACERS_AdamsBash_Tr = /* apply AB on passive tracer */
(PID.TID 0000.0001)                   F
(PID.TID 0000.0001)     ;
(PID.TID 0000.0001) PTRACERS_diffKh = /* Laplacian Diffusivity */
(PID.TID 0000.0001)                 0.000000000000000E+00
(PID.TID 0000.0001)     ;
(PID.TID 0000.0001) PTRACERS_diffK4 = /* Biharmonic Diffusivity */
(PID.TID 0000.0001)                 0.000000000000000E+00
(PID.TID 0000.0001)     ;
(PID.TID 0000.0001) PTRACERS_diffKrNr = /* Vertical Diffusivity */
(PID.TID 0000.0001)    35 @  1.000000000000000E-05              /* K =  1: 35 */
(PID.TID 0000.0001)     ;
(PID.TID 0000.0001) PTRACERS_useGMRedi = /* apply GM-Redi */
(PID.TID 0000.0001)                   F
(PID.TID 0000.0001)     ;
(PID.TID 0000.0001) PTRACERS_useDWNSLP = /* apply DOWN-SLOPE Flow */
(PID.TID 0000.0001)                   F
(PID.TID 0000.0001)     ;
(PID.TID 0000.0001) PTRACERS_useKPP = /* apply KPP scheme */
(PID.TID 0000.0001)                   T
(PID.TID 0000.0001)     ;
(PID.TID 0000.0001) PTRACERS_ref = /* Reference vertical profile */
(PID.TID 0000.0001)    35 @  0.000000000000000E+00              /* K =  1: 35 */
(PID.TID 0000.0001)     ;
(PID.TID 0000.0001) PTRACERS_EvPrRn =/* tracer conc. in Evap. & Rain */
(PID.TID 0000.0001)                 1.234567000000000E+05
(PID.TID 0000.0001)     ;
(PID.TID 0000.0001)  -----------------------------------
(PID.TID 0000.0001)  tracer number :   17
(PID.TID 0000.0001) PTRACERS_names = /* Tracer short name */
(PID.TID 0000.0001)               'PIC'
(PID.TID 0000.0001)     ;
(PID.TID 0000.0001) PTRACERS_long_names = /* Tracer long name */
(PID.TID 0000.0001)               ''
(PID.TID 0000.0001)     ;
(PID.TID 0000.0001) PTRACERS_ioLabel = /* tracer IO Label */
(PID.TID 0000.0001)               '17'
(PID.TID 0000.0001)     ;
(PID.TID 0000.0001) PTRACERS_advScheme = /* Advection Scheme */
(PID.TID 0000.0001)                      33
(PID.TID 0000.0001)     ;
(PID.TID 0000.0001) PTRACERS_SOM_Advection = /* tracer uses SOM advection scheme */
(PID.TID 0000.0001)                   F
(PID.TID 0000.0001)     ;
(PID.TID 0000.0001) PTRACERS_ImplVertAdv = /* implicit vert. advection flag */
(PID.TID 0000.0001)                   F
(PID.TID 0000.0001)     ;
(PID.TID 0000.0001) PTRACERS_MultiDimAdv = /* tracer uses Multi-Dim advection */
(PID.TID 0000.0001)                   T
(PID.TID 0000.0001)     ;
(PID.TID 0000.0001) PTRACERS_AdamsBashGtr = /* apply AB on tracer tendency */
(PID.TID 0000.0001)                   F
(PID.TID 0000.0001)     ;
(PID.TID 0000.0001) PTRACERS_AdamsBash_Tr = /* apply AB on passive tracer */
(PID.TID 0000.0001)                   F
(PID.TID 0000.0001)     ;
(PID.TID 0000.0001) PTRACERS_diffKh = /* Laplacian Diffusivity */
(PID.TID 0000.0001)                 0.000000000000000E+00
(PID.TID 0000.0001)     ;
(PID.TID 0000.0001) PTRACERS_diffK4 = /* Biharmonic Diffusivity */
(PID.TID 0000.0001)                 0.000000000000000E+00
(PID.TID 0000.0001)     ;
(PID.TID 0000.0001) PTRACERS_diffKrNr = /* Vertical Diffusivity */
(PID.TID 0000.0001)    35 @  1.000000000000000E-05              /* K =  1: 35 */
(PID.TID 0000.0001)     ;
(PID.TID 0000.0001) PTRACERS_useGMRedi = /* apply GM-Redi */
(PID.TID 0000.0001)                   F
(PID.TID 0000.0001)     ;
(PID.TID 0000.0001) PTRACERS_useDWNSLP = /* apply DOWN-SLOPE Flow */
(PID.TID 0000.0001)                   F
(PID.TID 0000.0001)     ;
(PID.TID 0000.0001) PTRACERS_useKPP = /* apply KPP scheme */
(PID.TID 0000.0001)                   T
(PID.TID 0000.0001)     ;
(PID.TID 0000.0001) PTRACERS_ref = /* Reference vertical profile */
(PID.TID 0000.0001)    35 @  0.000000000000000E+00              /* K =  1: 35 */
(PID.TID 0000.0001)     ;
(PID.TID 0000.0001) PTRACERS_EvPrRn =/* tracer conc. in Evap. & Rain */
(PID.TID 0000.0001)                 1.234567000000000E+05
(PID.TID 0000.0001)     ;
(PID.TID 0000.0001)  -----------------------------------
(PID.TID 0000.0001)  tracer number :   18
(PID.TID 0000.0001) PTRACERS_names = /* Tracer short name */
(PID.TID 0000.0001)               'ALK'
(PID.TID 0000.0001)     ;
(PID.TID 0000.0001) PTRACERS_long_names = /* Tracer long name */
(PID.TID 0000.0001)               ''
(PID.TID 0000.0001)     ;
(PID.TID 0000.0001) PTRACERS_ioLabel = /* tracer IO Label */
(PID.TID 0000.0001)               '18'
(PID.TID 0000.0001)     ;
(PID.TID 0000.0001) PTRACERS_advScheme = /* Advection Scheme */
(PID.TID 0000.0001)                      33
(PID.TID 0000.0001)     ;
(PID.TID 0000.0001) PTRACERS_SOM_Advection = /* tracer uses SOM advection scheme */
(PID.TID 0000.0001)                   F
(PID.TID 0000.0001)     ;
(PID.TID 0000.0001) PTRACERS_ImplVertAdv = /* implicit vert. advection flag */
(PID.TID 0000.0001)                   F
(PID.TID 0000.0001)     ;
(PID.TID 0000.0001) PTRACERS_MultiDimAdv = /* tracer uses Multi-Dim advection */
(PID.TID 0000.0001)                   T
(PID.TID 0000.0001)     ;
(PID.TID 0000.0001) PTRACERS_AdamsBashGtr = /* apply AB on tracer tendency */
(PID.TID 0000.0001)                   F
(PID.TID 0000.0001)     ;
(PID.TID 0000.0001) PTRACERS_AdamsBash_Tr = /* apply AB on passive tracer */
(PID.TID 0000.0001)                   F
(PID.TID 0000.0001)     ;
(PID.TID 0000.0001) PTRACERS_diffKh = /* Laplacian Diffusivity */
(PID.TID 0000.0001)                 0.000000000000000E+00
(PID.TID 0000.0001)     ;
(PID.TID 0000.0001) PTRACERS_diffK4 = /* Biharmonic Diffusivity */
(PID.TID 0000.0001)                 0.000000000000000E+00
(PID.TID 0000.0001)     ;
(PID.TID 0000.0001) PTRACERS_diffKrNr = /* Vertical Diffusivity */
(PID.TID 0000.0001)    35 @  1.000000000000000E-05              /* K =  1: 35 */
(PID.TID 0000.0001)     ;
(PID.TID 0000.0001) PTRACERS_useGMRedi = /* apply GM-Redi */
(PID.TID 0000.0001)                   F
(PID.TID 0000.0001)     ;
(PID.TID 0000.0001) PTRACERS_useDWNSLP = /* apply DOWN-SLOPE Flow */
(PID.TID 0000.0001)                   F
(PID.TID 0000.0001)     ;
(PID.TID 0000.0001) PTRACERS_useKPP = /* apply KPP scheme */
(PID.TID 0000.0001)                   T
(PID.TID 0000.0001)     ;
(PID.TID 0000.0001) PTRACERS_ref = /* Reference vertical profile */
(PID.TID 0000.0001)    35 @  0.000000000000000E+00              /* K =  1: 35 */
(PID.TID 0000.0001)     ;
(PID.TID 0000.0001) PTRACERS_EvPrRn =/* tracer conc. in Evap. & Rain */
(PID.TID 0000.0001)                 1.234567000000000E+05
(PID.TID 0000.0001)     ;
(PID.TID 0000.0001)  -----------------------------------
(PID.TID 0000.0001)  tracer number :   19
(PID.TID 0000.0001) PTRACERS_names = /* Tracer short name */
(PID.TID 0000.0001)               'O2'
(PID.TID 0000.0001)     ;
(PID.TID 0000.0001) PTRACERS_long_names = /* Tracer long name */
(PID.TID 0000.0001)               ''
(PID.TID 0000.0001)     ;
(PID.TID 0000.0001) PTRACERS_ioLabel = /* tracer IO Label */
(PID.TID 0000.0001)               '19'
(PID.TID 0000.0001)     ;
(PID.TID 0000.0001) PTRACERS_advScheme = /* Advection Scheme */
(PID.TID 0000.0001)                      33
(PID.TID 0000.0001)     ;
(PID.TID 0000.0001) PTRACERS_SOM_Advection = /* tracer uses SOM advection scheme */
(PID.TID 0000.0001)                   F
(PID.TID 0000.0001)     ;
(PID.TID 0000.0001) PTRACERS_ImplVertAdv = /* implicit vert. advection flag */
(PID.TID 0000.0001)                   F
(PID.TID 0000.0001)     ;
(PID.TID 0000.0001) PTRACERS_MultiDimAdv = /* tracer uses Multi-Dim advection */
(PID.TID 0000.0001)                   T
(PID.TID 0000.0001)     ;
(PID.TID 0000.0001) PTRACERS_AdamsBashGtr = /* apply AB on tracer tendency */
(PID.TID 0000.0001)                   F
(PID.TID 0000.0001)     ;
(PID.TID 0000.0001) PTRACERS_AdamsBash_Tr = /* apply AB on passive tracer */
(PID.TID 0000.0001)                   F
(PID.TID 0000.0001)     ;
(PID.TID 0000.0001) PTRACERS_diffKh = /* Laplacian Diffusivity */
(PID.TID 0000.0001)                 0.000000000000000E+00
(PID.TID 0000.0001)     ;
(PID.TID 0000.0001) PTRACERS_diffK4 = /* Biharmonic Diffusivity */
(PID.TID 0000.0001)                 0.000000000000000E+00
(PID.TID 0000.0001)     ;
(PID.TID 0000.0001) PTRACERS_diffKrNr = /* Vertical Diffusivity */
(PID.TID 0000.0001)    35 @  1.000000000000000E-05              /* K =  1: 35 */
(PID.TID 0000.0001)     ;
(PID.TID 0000.0001) PTRACERS_useGMRedi = /* apply GM-Redi */
(PID.TID 0000.0001)                   F
(PID.TID 0000.0001)     ;
(PID.TID 0000.0001) PTRACERS_useDWNSLP = /* apply DOWN-SLOPE Flow */
(PID.TID 0000.0001)                   F
(PID.TID 0000.0001)     ;
(PID.TID 0000.0001) PTRACERS_useKPP = /* apply KPP scheme */
(PID.TID 0000.0001)                   T
(PID.TID 0000.0001)     ;
(PID.TID 0000.0001) PTRACERS_ref = /* Reference vertical profile */
(PID.TID 0000.0001)    35 @  0.000000000000000E+00              /* K =  1: 35 */
(PID.TID 0000.0001)     ;
(PID.TID 0000.0001) PTRACERS_EvPrRn =/* tracer conc. in Evap. & Rain */
(PID.TID 0000.0001)                 1.234567000000000E+05
(PID.TID 0000.0001)     ;
(PID.TID 0000.0001)  -----------------------------------
(PID.TID 0000.0001)  tracer number :   20
(PID.TID 0000.0001) PTRACERS_names = /* Tracer short name */
(PID.TID 0000.0001)               'c01'
(PID.TID 0000.0001)     ;
(PID.TID 0000.0001) PTRACERS_long_names = /* Tracer long name */
(PID.TID 0000.0001)               ''
(PID.TID 0000.0001)     ;
(PID.TID 0000.0001) PTRACERS_ioLabel = /* tracer IO Label */
(PID.TID 0000.0001)               '20'
(PID.TID 0000.0001)     ;
(PID.TID 0000.0001) PTRACERS_advScheme = /* Advection Scheme */
(PID.TID 0000.0001)                      33
(PID.TID 0000.0001)     ;
(PID.TID 0000.0001) PTRACERS_SOM_Advection = /* tracer uses SOM advection scheme */
(PID.TID 0000.0001)                   F
(PID.TID 0000.0001)     ;
(PID.TID 0000.0001) PTRACERS_ImplVertAdv = /* implicit vert. advection flag */
(PID.TID 0000.0001)                   F
(PID.TID 0000.0001)     ;
(PID.TID 0000.0001) PTRACERS_MultiDimAdv = /* tracer uses Multi-Dim advection */
(PID.TID 0000.0001)                   T
(PID.TID 0000.0001)     ;
(PID.TID 0000.0001) PTRACERS_AdamsBashGtr = /* apply AB on tracer tendency */
(PID.TID 0000.0001)                   F
(PID.TID 0000.0001)     ;
(PID.TID 0000.0001) PTRACERS_AdamsBash_Tr = /* apply AB on passive tracer */
(PID.TID 0000.0001)                   F
(PID.TID 0000.0001)     ;
(PID.TID 0000.0001) PTRACERS_diffKh = /* Laplacian Diffusivity */
(PID.TID 0000.0001)                 0.000000000000000E+00
(PID.TID 0000.0001)     ;
(PID.TID 0000.0001) PTRACERS_diffK4 = /* Biharmonic Diffusivity */
(PID.TID 0000.0001)                 0.000000000000000E+00
(PID.TID 0000.0001)     ;
(PID.TID 0000.0001) PTRACERS_diffKrNr = /* Vertical Diffusivity */
(PID.TID 0000.0001)    35 @  1.000000000000000E-05              /* K =  1: 35 */
(PID.TID 0000.0001)     ;
(PID.TID 0000.0001) PTRACERS_useGMRedi = /* apply GM-Redi */
(PID.TID 0000.0001)                   F
(PID.TID 0000.0001)     ;
(PID.TID 0000.0001) PTRACERS_useDWNSLP = /* apply DOWN-SLOPE Flow */
(PID.TID 0000.0001)                   F
(PID.TID 0000.0001)     ;
(PID.TID 0000.0001) PTRACERS_useKPP = /* apply KPP scheme */
(PID.TID 0000.0001)                   T
(PID.TID 0000.0001)     ;
(PID.TID 0000.0001) PTRACERS_ref = /* Reference vertical profile */
(PID.TID 0000.0001)    35 @  0.000000000000000E+00              /* K =  1: 35 */
(PID.TID 0000.0001)     ;
(PID.TID 0000.0001) PTRACERS_EvPrRn =/* tracer conc. in Evap. & Rain */
(PID.TID 0000.0001)                 1.234567000000000E+05
(PID.TID 0000.0001)     ;
(PID.TID 0000.0001)  -----------------------------------
(PID.TID 0000.0001)  tracer number :   21
(PID.TID 0000.0001) PTRACERS_names = /* Tracer short name */
(PID.TID 0000.0001)               'c02'
(PID.TID 0000.0001)     ;
(PID.TID 0000.0001) PTRACERS_long_names = /* Tracer long name */
(PID.TID 0000.0001)               ''
(PID.TID 0000.0001)     ;
(PID.TID 0000.0001) PTRACERS_ioLabel = /* tracer IO Label */
(PID.TID 0000.0001)               '21'
(PID.TID 0000.0001)     ;
(PID.TID 0000.0001) PTRACERS_advScheme = /* Advection Scheme */
(PID.TID 0000.0001)                      33
(PID.TID 0000.0001)     ;
(PID.TID 0000.0001) PTRACERS_SOM_Advection = /* tracer uses SOM advection scheme */
(PID.TID 0000.0001)                   F
(PID.TID 0000.0001)     ;
(PID.TID 0000.0001) PTRACERS_ImplVertAdv = /* implicit vert. advection flag */
(PID.TID 0000.0001)                   F
(PID.TID 0000.0001)     ;
(PID.TID 0000.0001) PTRACERS_MultiDimAdv = /* tracer uses Multi-Dim advection */
(PID.TID 0000.0001)                   T
(PID.TID 0000.0001)     ;
(PID.TID 0000.0001) PTRACERS_AdamsBashGtr = /* apply AB on tracer tendency */
(PID.TID 0000.0001)                   F
(PID.TID 0000.0001)     ;
(PID.TID 0000.0001) PTRACERS_AdamsBash_Tr = /* apply AB on passive tracer */
(PID.TID 0000.0001)                   F
(PID.TID 0000.0001)     ;
(PID.TID 0000.0001) PTRACERS_diffKh = /* Laplacian Diffusivity */
(PID.TID 0000.0001)                 0.000000000000000E+00
(PID.TID 0000.0001)     ;
(PID.TID 0000.0001) PTRACERS_diffK4 = /* Biharmonic Diffusivity */
(PID.TID 0000.0001)                 0.000000000000000E+00
(PID.TID 0000.0001)     ;
(PID.TID 0000.0001) PTRACERS_diffKrNr = /* Vertical Diffusivity */
(PID.TID 0000.0001)    35 @  1.000000000000000E-05              /* K =  1: 35 */
(PID.TID 0000.0001)     ;
(PID.TID 0000.0001) PTRACERS_useGMRedi = /* apply GM-Redi */
(PID.TID 0000.0001)                   F
(PID.TID 0000.0001)     ;
(PID.TID 0000.0001) PTRACERS_useDWNSLP = /* apply DOWN-SLOPE Flow */
(PID.TID 0000.0001)                   F
(PID.TID 0000.0001)     ;
(PID.TID 0000.0001) PTRACERS_useKPP = /* apply KPP scheme */
(PID.TID 0000.0001)                   T
(PID.TID 0000.0001)     ;
(PID.TID 0000.0001) PTRACERS_ref = /* Reference vertical profile */
(PID.TID 0000.0001)    35 @  0.000000000000000E+00              /* K =  1: 35 */
(PID.TID 0000.0001)     ;
(PID.TID 0000.0001) PTRACERS_EvPrRn =/* tracer conc. in Evap. & Rain */
(PID.TID 0000.0001)                 1.234567000000000E+05
(PID.TID 0000.0001)     ;
(PID.TID 0000.0001)  -----------------------------------
(PID.TID 0000.0001)  tracer number :   22
(PID.TID 0000.0001) PTRACERS_names = /* Tracer short name */
(PID.TID 0000.0001)               'c03'
(PID.TID 0000.0001)     ;
(PID.TID 0000.0001) PTRACERS_long_names = /* Tracer long name */
(PID.TID 0000.0001)               ''
(PID.TID 0000.0001)     ;
(PID.TID 0000.0001) PTRACERS_ioLabel = /* tracer IO Label */
(PID.TID 0000.0001)               '22'
(PID.TID 0000.0001)     ;
(PID.TID 0000.0001) PTRACERS_advScheme = /* Advection Scheme */
(PID.TID 0000.0001)                      33
(PID.TID 0000.0001)     ;
(PID.TID 0000.0001) PTRACERS_SOM_Advection = /* tracer uses SOM advection scheme */
(PID.TID 0000.0001)                   F
(PID.TID 0000.0001)     ;
(PID.TID 0000.0001) PTRACERS_ImplVertAdv = /* implicit vert. advection flag */
(PID.TID 0000.0001)                   F
(PID.TID 0000.0001)     ;
(PID.TID 0000.0001) PTRACERS_MultiDimAdv = /* tracer uses Multi-Dim advection */
(PID.TID 0000.0001)                   T
(PID.TID 0000.0001)     ;
(PID.TID 0000.0001) PTRACERS_AdamsBashGtr = /* apply AB on tracer tendency */
(PID.TID 0000.0001)                   F
(PID.TID 0000.0001)     ;
(PID.TID 0000.0001) PTRACERS_AdamsBash_Tr = /* apply AB on passive tracer */
(PID.TID 0000.0001)                   F
(PID.TID 0000.0001)     ;
(PID.TID 0000.0001) PTRACERS_diffKh = /* Laplacian Diffusivity */
(PID.TID 0000.0001)                 0.000000000000000E+00
(PID.TID 0000.0001)     ;
(PID.TID 0000.0001) PTRACERS_diffK4 = /* Biharmonic Diffusivity */
(PID.TID 0000.0001)                 0.000000000000000E+00
(PID.TID 0000.0001)     ;
(PID.TID 0000.0001) PTRACERS_diffKrNr = /* Vertical Diffusivity */
(PID.TID 0000.0001)    35 @  1.000000000000000E-05              /* K =  1: 35 */
(PID.TID 0000.0001)     ;
(PID.TID 0000.0001) PTRACERS_useGMRedi = /* apply GM-Redi */
(PID.TID 0000.0001)                   F
(PID.TID 0000.0001)     ;
(PID.TID 0000.0001) PTRACERS_useDWNSLP = /* apply DOWN-SLOPE Flow */
(PID.TID 0000.0001)                   F
(PID.TID 0000.0001)     ;
(PID.TID 0000.0001) PTRACERS_useKPP = /* apply KPP scheme */
(PID.TID 0000.0001)                   T
(PID.TID 0000.0001)     ;
(PID.TID 0000.0001) PTRACERS_ref = /* Reference vertical profile */
(PID.TID 0000.0001)    35 @  0.000000000000000E+00              /* K =  1: 35 */
(PID.TID 0000.0001)     ;
(PID.TID 0000.0001) PTRACERS_EvPrRn =/* tracer conc. in Evap. & Rain */
(PID.TID 0000.0001)                 1.234567000000000E+05
(PID.TID 0000.0001)     ;
(PID.TID 0000.0001)  -----------------------------------
(PID.TID 0000.0001)  tracer number :   23
(PID.TID 0000.0001) PTRACERS_names = /* Tracer short name */
(PID.TID 0000.0001)               'c04'
(PID.TID 0000.0001)     ;
(PID.TID 0000.0001) PTRACERS_long_names = /* Tracer long name */
(PID.TID 0000.0001)               ''
(PID.TID 0000.0001)     ;
(PID.TID 0000.0001) PTRACERS_ioLabel = /* tracer IO Label */
(PID.TID 0000.0001)               '23'
(PID.TID 0000.0001)     ;
(PID.TID 0000.0001) PTRACERS_advScheme = /* Advection Scheme */
(PID.TID 0000.0001)                      33
(PID.TID 0000.0001)     ;
(PID.TID 0000.0001) PTRACERS_SOM_Advection = /* tracer uses SOM advection scheme */
(PID.TID 0000.0001)                   F
(PID.TID 0000.0001)     ;
(PID.TID 0000.0001) PTRACERS_ImplVertAdv = /* implicit vert. advection flag */
(PID.TID 0000.0001)                   F
(PID.TID 0000.0001)     ;
(PID.TID 0000.0001) PTRACERS_MultiDimAdv = /* tracer uses Multi-Dim advection */
(PID.TID 0000.0001)                   T
(PID.TID 0000.0001)     ;
(PID.TID 0000.0001) PTRACERS_AdamsBashGtr = /* apply AB on tracer tendency */
(PID.TID 0000.0001)                   F
(PID.TID 0000.0001)     ;
(PID.TID 0000.0001) PTRACERS_AdamsBash_Tr = /* apply AB on passive tracer */
(PID.TID 0000.0001)                   F
(PID.TID 0000.0001)     ;
(PID.TID 0000.0001) PTRACERS_diffKh = /* Laplacian Diffusivity */
(PID.TID 0000.0001)                 0.000000000000000E+00
(PID.TID 0000.0001)     ;
(PID.TID 0000.0001) PTRACERS_diffK4 = /* Biharmonic Diffusivity */
(PID.TID 0000.0001)                 0.000000000000000E+00
(PID.TID 0000.0001)     ;
(PID.TID 0000.0001) PTRACERS_diffKrNr = /* Vertical Diffusivity */
(PID.TID 0000.0001)    35 @  1.000000000000000E-05              /* K =  1: 35 */
(PID.TID 0000.0001)     ;
(PID.TID 0000.0001) PTRACERS_useGMRedi = /* apply GM-Redi */
(PID.TID 0000.0001)                   F
(PID.TID 0000.0001)     ;
(PID.TID 0000.0001) PTRACERS_useDWNSLP = /* apply DOWN-SLOPE Flow */
(PID.TID 0000.0001)                   F
(PID.TID 0000.0001)     ;
(PID.TID 0000.0001) PTRACERS_useKPP = /* apply KPP scheme */
(PID.TID 0000.0001)                   T
(PID.TID 0000.0001)     ;
(PID.TID 0000.0001) PTRACERS_ref = /* Reference vertical profile */
(PID.TID 0000.0001)    35 @  0.000000000000000E+00              /* K =  1: 35 */
(PID.TID 0000.0001)     ;
(PID.TID 0000.0001) PTRACERS_EvPrRn =/* tracer conc. in Evap. & Rain */
(PID.TID 0000.0001)                 1.234567000000000E+05
(PID.TID 0000.0001)     ;
(PID.TID 0000.0001)  -----------------------------------
(PID.TID 0000.0001)  tracer number :   24
(PID.TID 0000.0001) PTRACERS_names = /* Tracer short name */
(PID.TID 0000.0001)               'c05'
(PID.TID 0000.0001)     ;
(PID.TID 0000.0001) PTRACERS_long_names = /* Tracer long name */
(PID.TID 0000.0001)               ''
(PID.TID 0000.0001)     ;
(PID.TID 0000.0001) PTRACERS_ioLabel = /* tracer IO Label */
(PID.TID 0000.0001)               '24'
(PID.TID 0000.0001)     ;
(PID.TID 0000.0001) PTRACERS_advScheme = /* Advection Scheme */
(PID.TID 0000.0001)                      33
(PID.TID 0000.0001)     ;
(PID.TID 0000.0001) PTRACERS_SOM_Advection = /* tracer uses SOM advection scheme */
(PID.TID 0000.0001)                   F
(PID.TID 0000.0001)     ;
(PID.TID 0000.0001) PTRACERS_ImplVertAdv = /* implicit vert. advection flag */
(PID.TID 0000.0001)                   F
(PID.TID 0000.0001)     ;
(PID.TID 0000.0001) PTRACERS_MultiDimAdv = /* tracer uses Multi-Dim advection */
(PID.TID 0000.0001)                   T
(PID.TID 0000.0001)     ;
(PID.TID 0000.0001) PTRACERS_AdamsBashGtr = /* apply AB on tracer tendency */
(PID.TID 0000.0001)                   F
(PID.TID 0000.0001)     ;
(PID.TID 0000.0001) PTRACERS_AdamsBash_Tr = /* apply AB on passive tracer */
(PID.TID 0000.0001)                   F
(PID.TID 0000.0001)     ;
(PID.TID 0000.0001) PTRACERS_diffKh = /* Laplacian Diffusivity */
(PID.TID 0000.0001)                 0.000000000000000E+00
(PID.TID 0000.0001)     ;
(PID.TID 0000.0001) PTRACERS_diffK4 = /* Biharmonic Diffusivity */
(PID.TID 0000.0001)                 0.000000000000000E+00
(PID.TID 0000.0001)     ;
(PID.TID 0000.0001) PTRACERS_diffKrNr = /* Vertical Diffusivity */
(PID.TID 0000.0001)    35 @  1.000000000000000E-05              /* K =  1: 35 */
(PID.TID 0000.0001)     ;
(PID.TID 0000.0001) PTRACERS_useGMRedi = /* apply GM-Redi */
(PID.TID 0000.0001)                   F
(PID.TID 0000.0001)     ;
(PID.TID 0000.0001) PTRACERS_useDWNSLP = /* apply DOWN-SLOPE Flow */
(PID.TID 0000.0001)                   F
(PID.TID 0000.0001)     ;
(PID.TID 0000.0001) PTRACERS_useKPP = /* apply KPP scheme */
(PID.TID 0000.0001)                   T
(PID.TID 0000.0001)     ;
(PID.TID 0000.0001) PTRACERS_ref = /* Reference vertical profile */
(PID.TID 0000.0001)    35 @  0.000000000000000E+00              /* K =  1: 35 */
(PID.TID 0000.0001)     ;
(PID.TID 0000.0001) PTRACERS_EvPrRn =/* tracer conc. in Evap. & Rain */
(PID.TID 0000.0001)                 1.234567000000000E+05
(PID.TID 0000.0001)     ;
(PID.TID 0000.0001)  -----------------------------------
(PID.TID 0000.0001)  tracer number :   25
(PID.TID 0000.0001) PTRACERS_names = /* Tracer short name */
(PID.TID 0000.0001)               'c06'
(PID.TID 0000.0001)     ;
(PID.TID 0000.0001) PTRACERS_long_names = /* Tracer long name */
(PID.TID 0000.0001)               ''
(PID.TID 0000.0001)     ;
(PID.TID 0000.0001) PTRACERS_ioLabel = /* tracer IO Label */
(PID.TID 0000.0001)               '25'
(PID.TID 0000.0001)     ;
(PID.TID 0000.0001) PTRACERS_advScheme = /* Advection Scheme */
(PID.TID 0000.0001)                      33
(PID.TID 0000.0001)     ;
(PID.TID 0000.0001) PTRACERS_SOM_Advection = /* tracer uses SOM advection scheme */
(PID.TID 0000.0001)                   F
(PID.TID 0000.0001)     ;
(PID.TID 0000.0001) PTRACERS_ImplVertAdv = /* implicit vert. advection flag */
(PID.TID 0000.0001)                   F
(PID.TID 0000.0001)     ;
(PID.TID 0000.0001) PTRACERS_MultiDimAdv = /* tracer uses Multi-Dim advection */
(PID.TID 0000.0001)                   T
(PID.TID 0000.0001)     ;
(PID.TID 0000.0001) PTRACERS_AdamsBashGtr = /* apply AB on tracer tendency */
(PID.TID 0000.0001)                   F
(PID.TID 0000.0001)     ;
(PID.TID 0000.0001) PTRACERS_AdamsBash_Tr = /* apply AB on passive tracer */
(PID.TID 0000.0001)                   F
(PID.TID 0000.0001)     ;
(PID.TID 0000.0001) PTRACERS_diffKh = /* Laplacian Diffusivity */
(PID.TID 0000.0001)                 0.000000000000000E+00
(PID.TID 0000.0001)     ;
(PID.TID 0000.0001) PTRACERS_diffK4 = /* Biharmonic Diffusivity */
(PID.TID 0000.0001)                 0.000000000000000E+00
(PID.TID 0000.0001)     ;
(PID.TID 0000.0001) PTRACERS_diffKrNr = /* Vertical Diffusivity */
(PID.TID 0000.0001)    35 @  1.000000000000000E-05              /* K =  1: 35 */
(PID.TID 0000.0001)     ;
(PID.TID 0000.0001) PTRACERS_useGMRedi = /* apply GM-Redi */
(PID.TID 0000.0001)                   F
(PID.TID 0000.0001)     ;
(PID.TID 0000.0001) PTRACERS_useDWNSLP = /* apply DOWN-SLOPE Flow */
(PID.TID 0000.0001)                   F
(PID.TID 0000.0001)     ;
(PID.TID 0000.0001) PTRACERS_useKPP = /* apply KPP scheme */
(PID.TID 0000.0001)                   T
(PID.TID 0000.0001)     ;
(PID.TID 0000.0001) PTRACERS_ref = /* Reference vertical profile */
(PID.TID 0000.0001)    35 @  0.000000000000000E+00              /* K =  1: 35 */
(PID.TID 0000.0001)     ;
(PID.TID 0000.0001) PTRACERS_EvPrRn =/* tracer conc. in Evap. & Rain */
(PID.TID 0000.0001)                 1.234567000000000E+05
(PID.TID 0000.0001)     ;
(PID.TID 0000.0001)  -----------------------------------
(PID.TID 0000.0001)  tracer number :   26
(PID.TID 0000.0001) PTRACERS_names = /* Tracer short name */
(PID.TID 0000.0001)               'c07'
(PID.TID 0000.0001)     ;
(PID.TID 0000.0001) PTRACERS_long_names = /* Tracer long name */
(PID.TID 0000.0001)               ''
(PID.TID 0000.0001)     ;
(PID.TID 0000.0001) PTRACERS_ioLabel = /* tracer IO Label */
(PID.TID 0000.0001)               '26'
(PID.TID 0000.0001)     ;
(PID.TID 0000.0001) PTRACERS_advScheme = /* Advection Scheme */
(PID.TID 0000.0001)                      33
(PID.TID 0000.0001)     ;
(PID.TID 0000.0001) PTRACERS_SOM_Advection = /* tracer uses SOM advection scheme */
(PID.TID 0000.0001)                   F
(PID.TID 0000.0001)     ;
(PID.TID 0000.0001) PTRACERS_ImplVertAdv = /* implicit vert. advection flag */
(PID.TID 0000.0001)                   F
(PID.TID 0000.0001)     ;
(PID.TID 0000.0001) PTRACERS_MultiDimAdv = /* tracer uses Multi-Dim advection */
(PID.TID 0000.0001)                   T
(PID.TID 0000.0001)     ;
(PID.TID 0000.0001) PTRACERS_AdamsBashGtr = /* apply AB on tracer tendency */
(PID.TID 0000.0001)                   F
(PID.TID 0000.0001)     ;
(PID.TID 0000.0001) PTRACERS_AdamsBash_Tr = /* apply AB on passive tracer */
(PID.TID 0000.0001)                   F
(PID.TID 0000.0001)     ;
(PID.TID 0000.0001) PTRACERS_diffKh = /* Laplacian Diffusivity */
(PID.TID 0000.0001)                 0.000000000000000E+00
(PID.TID 0000.0001)     ;
(PID.TID 0000.0001) PTRACERS_diffK4 = /* Biharmonic Diffusivity */
(PID.TID 0000.0001)                 0.000000000000000E+00
(PID.TID 0000.0001)     ;
(PID.TID 0000.0001) PTRACERS_diffKrNr = /* Vertical Diffusivity */
(PID.TID 0000.0001)    35 @  1.000000000000000E-05              /* K =  1: 35 */
(PID.TID 0000.0001)     ;
(PID.TID 0000.0001) PTRACERS_useGMRedi = /* apply GM-Redi */
(PID.TID 0000.0001)                   F
(PID.TID 0000.0001)     ;
(PID.TID 0000.0001) PTRACERS_useDWNSLP = /* apply DOWN-SLOPE Flow */
(PID.TID 0000.0001)                   F
(PID.TID 0000.0001)     ;
(PID.TID 0000.0001) PTRACERS_useKPP = /* apply KPP scheme */
(PID.TID 0000.0001)                   T
(PID.TID 0000.0001)     ;
(PID.TID 0000.0001) PTRACERS_ref = /* Reference vertical profile */
(PID.TID 0000.0001)    35 @  0.000000000000000E+00              /* K =  1: 35 */
(PID.TID 0000.0001)     ;
(PID.TID 0000.0001) PTRACERS_EvPrRn =/* tracer conc. in Evap. & Rain */
(PID.TID 0000.0001)                 1.234567000000000E+05
(PID.TID 0000.0001)     ;
(PID.TID 0000.0001)  -----------------------------------
(PID.TID 0000.0001)  tracer number :   27
(PID.TID 0000.0001) PTRACERS_names = /* Tracer short name */
(PID.TID 0000.0001)               'c08'
(PID.TID 0000.0001)     ;
(PID.TID 0000.0001) PTRACERS_long_names = /* Tracer long name */
(PID.TID 0000.0001)               ''
(PID.TID 0000.0001)     ;
(PID.TID 0000.0001) PTRACERS_ioLabel = /* tracer IO Label */
(PID.TID 0000.0001)               '27'
(PID.TID 0000.0001)     ;
(PID.TID 0000.0001) PTRACERS_advScheme = /* Advection Scheme */
(PID.TID 0000.0001)                      33
(PID.TID 0000.0001)     ;
(PID.TID 0000.0001) PTRACERS_SOM_Advection = /* tracer uses SOM advection scheme */
(PID.TID 0000.0001)                   F
(PID.TID 0000.0001)     ;
(PID.TID 0000.0001) PTRACERS_ImplVertAdv = /* implicit vert. advection flag */
(PID.TID 0000.0001)                   F
(PID.TID 0000.0001)     ;
(PID.TID 0000.0001) PTRACERS_MultiDimAdv = /* tracer uses Multi-Dim advection */
(PID.TID 0000.0001)                   T
(PID.TID 0000.0001)     ;
(PID.TID 0000.0001) PTRACERS_AdamsBashGtr = /* apply AB on tracer tendency */
(PID.TID 0000.0001)                   F
(PID.TID 0000.0001)     ;
(PID.TID 0000.0001) PTRACERS_AdamsBash_Tr = /* apply AB on passive tracer */
(PID.TID 0000.0001)                   F
(PID.TID 0000.0001)     ;
(PID.TID 0000.0001) PTRACERS_diffKh = /* Laplacian Diffusivity */
(PID.TID 0000.0001)                 0.000000000000000E+00
(PID.TID 0000.0001)     ;
(PID.TID 0000.0001) PTRACERS_diffK4 = /* Biharmonic Diffusivity */
(PID.TID 0000.0001)                 0.000000000000000E+00
(PID.TID 0000.0001)     ;
(PID.TID 0000.0001) PTRACERS_diffKrNr = /* Vertical Diffusivity */
(PID.TID 0000.0001)    35 @  1.000000000000000E-05              /* K =  1: 35 */
(PID.TID 0000.0001)     ;
(PID.TID 0000.0001) PTRACERS_useGMRedi = /* apply GM-Redi */
(PID.TID 0000.0001)                   F
(PID.TID 0000.0001)     ;
(PID.TID 0000.0001) PTRACERS_useDWNSLP = /* apply DOWN-SLOPE Flow */
(PID.TID 0000.0001)                   F
(PID.TID 0000.0001)     ;
(PID.TID 0000.0001) PTRACERS_useKPP = /* apply KPP scheme */
(PID.TID 0000.0001)                   T
(PID.TID 0000.0001)     ;
(PID.TID 0000.0001) PTRACERS_ref = /* Reference vertical profile */
(PID.TID 0000.0001)    35 @  0.000000000000000E+00              /* K =  1: 35 */
(PID.TID 0000.0001)     ;
(PID.TID 0000.0001) PTRACERS_EvPrRn =/* tracer conc. in Evap. & Rain */
(PID.TID 0000.0001)                 1.234567000000000E+05
(PID.TID 0000.0001)     ;
(PID.TID 0000.0001)  -----------------------------------
(PID.TID 0000.0001)  tracer number :   28
(PID.TID 0000.0001) PTRACERS_names = /* Tracer short name */
(PID.TID 0000.0001)               'c09'
(PID.TID 0000.0001)     ;
(PID.TID 0000.0001) PTRACERS_long_names = /* Tracer long name */
(PID.TID 0000.0001)               ''
(PID.TID 0000.0001)     ;
(PID.TID 0000.0001) PTRACERS_ioLabel = /* tracer IO Label */
(PID.TID 0000.0001)               '28'
(PID.TID 0000.0001)     ;
(PID.TID 0000.0001) PTRACERS_advScheme = /* Advection Scheme */
(PID.TID 0000.0001)                      33
(PID.TID 0000.0001)     ;
(PID.TID 0000.0001) PTRACERS_SOM_Advection = /* tracer uses SOM advection scheme */
(PID.TID 0000.0001)                   F
(PID.TID 0000.0001)     ;
(PID.TID 0000.0001) PTRACERS_ImplVertAdv = /* implicit vert. advection flag */
(PID.TID 0000.0001)                   F
(PID.TID 0000.0001)     ;
(PID.TID 0000.0001) PTRACERS_MultiDimAdv = /* tracer uses Multi-Dim advection */
(PID.TID 0000.0001)                   T
(PID.TID 0000.0001)     ;
(PID.TID 0000.0001) PTRACERS_AdamsBashGtr = /* apply AB on tracer tendency */
(PID.TID 0000.0001)                   F
(PID.TID 0000.0001)     ;
(PID.TID 0000.0001) PTRACERS_AdamsBash_Tr = /* apply AB on passive tracer */
(PID.TID 0000.0001)                   F
(PID.TID 0000.0001)     ;
(PID.TID 0000.0001) PTRACERS_diffKh = /* Laplacian Diffusivity */
(PID.TID 0000.0001)                 0.000000000000000E+00
(PID.TID 0000.0001)     ;
(PID.TID 0000.0001) PTRACERS_diffK4 = /* Biharmonic Diffusivity */
(PID.TID 0000.0001)                 0.000000000000000E+00
(PID.TID 0000.0001)     ;
(PID.TID 0000.0001) PTRACERS_diffKrNr = /* Vertical Diffusivity */
(PID.TID 0000.0001)    35 @  1.000000000000000E-05              /* K =  1: 35 */
(PID.TID 0000.0001)     ;
(PID.TID 0000.0001) PTRACERS_useGMRedi = /* apply GM-Redi */
(PID.TID 0000.0001)                   F
(PID.TID 0000.0001)     ;
(PID.TID 0000.0001) PTRACERS_useDWNSLP = /* apply DOWN-SLOPE Flow */
(PID.TID 0000.0001)                   F
(PID.TID 0000.0001)     ;
(PID.TID 0000.0001) PTRACERS_useKPP = /* apply KPP scheme */
(PID.TID 0000.0001)                   T
(PID.TID 0000.0001)     ;
(PID.TID 0000.0001) PTRACERS_ref = /* Reference vertical profile */
(PID.TID 0000.0001)    35 @  0.000000000000000E+00              /* K =  1: 35 */
(PID.TID 0000.0001)     ;
(PID.TID 0000.0001) PTRACERS_EvPrRn =/* tracer conc. in Evap. & Rain */
(PID.TID 0000.0001)                 1.234567000000000E+05
(PID.TID 0000.0001)     ;
(PID.TID 0000.0001)  -----------------------------------
(PID.TID 0000.0001)  tracer number :   29
(PID.TID 0000.0001) PTRACERS_names = /* Tracer short name */
(PID.TID 0000.0001)               'c10'
(PID.TID 0000.0001)     ;
(PID.TID 0000.0001) PTRACERS_long_names = /* Tracer long name */
(PID.TID 0000.0001)               ''
(PID.TID 0000.0001)     ;
(PID.TID 0000.0001) PTRACERS_ioLabel = /* tracer IO Label */
(PID.TID 0000.0001)               '29'
(PID.TID 0000.0001)     ;
(PID.TID 0000.0001) PTRACERS_advScheme = /* Advection Scheme */
(PID.TID 0000.0001)                      33
(PID.TID 0000.0001)     ;
(PID.TID 0000.0001) PTRACERS_SOM_Advection = /* tracer uses SOM advection scheme */
(PID.TID 0000.0001)                   F
(PID.TID 0000.0001)     ;
(PID.TID 0000.0001) PTRACERS_ImplVertAdv = /* implicit vert. advection flag */
(PID.TID 0000.0001)                   F
(PID.TID 0000.0001)     ;
(PID.TID 0000.0001) PTRACERS_MultiDimAdv = /* tracer uses Multi-Dim advection */
(PID.TID 0000.0001)                   T
(PID.TID 0000.0001)     ;
(PID.TID 0000.0001) PTRACERS_AdamsBashGtr = /* apply AB on tracer tendency */
(PID.TID 0000.0001)                   F
(PID.TID 0000.0001)     ;
(PID.TID 0000.0001) PTRACERS_AdamsBash_Tr = /* apply AB on passive tracer */
(PID.TID 0000.0001)                   F
(PID.TID 0000.0001)     ;
(PID.TID 0000.0001) PTRACERS_diffKh = /* Laplacian Diffusivity */
(PID.TID 0000.0001)                 0.000000000000000E+00
(PID.TID 0000.0001)     ;
(PID.TID 0000.0001) PTRACERS_diffK4 = /* Biharmonic Diffusivity */
(PID.TID 0000.0001)                 0.000000000000000E+00
(PID.TID 0000.0001)     ;
(PID.TID 0000.0001) PTRACERS_diffKrNr = /* Vertical Diffusivity */
(PID.TID 0000.0001)    35 @  1.000000000000000E-05              /* K =  1: 35 */
(PID.TID 0000.0001)     ;
(PID.TID 0000.0001) PTRACERS_useGMRedi = /* apply GM-Redi */
(PID.TID 0000.0001)                   F
(PID.TID 0000.0001)     ;
(PID.TID 0000.0001) PTRACERS_useDWNSLP = /* apply DOWN-SLOPE Flow */
(PID.TID 0000.0001)                   F
(PID.TID 0000.0001)     ;
(PID.TID 0000.0001) PTRACERS_useKPP = /* apply KPP scheme */
(PID.TID 0000.0001)                   T
(PID.TID 0000.0001)     ;
(PID.TID 0000.0001) PTRACERS_ref = /* Reference vertical profile */
(PID.TID 0000.0001)    35 @  0.000000000000000E+00              /* K =  1: 35 */
(PID.TID 0000.0001)     ;
(PID.TID 0000.0001) PTRACERS_EvPrRn =/* tracer conc. in Evap. & Rain */
(PID.TID 0000.0001)                 1.234567000000000E+05
(PID.TID 0000.0001)     ;
(PID.TID 0000.0001)  -----------------------------------
(PID.TID 0000.0001)  tracer number :   30
(PID.TID 0000.0001) PTRACERS_names = /* Tracer short name */
(PID.TID 0000.0001)               'c11'
(PID.TID 0000.0001)     ;
(PID.TID 0000.0001) PTRACERS_long_names = /* Tracer long name */
(PID.TID 0000.0001)               ''
(PID.TID 0000.0001)     ;
(PID.TID 0000.0001) PTRACERS_ioLabel = /* tracer IO Label */
(PID.TID 0000.0001)               '30'
(PID.TID 0000.0001)     ;
(PID.TID 0000.0001) PTRACERS_advScheme = /* Advection Scheme */
(PID.TID 0000.0001)                      33
(PID.TID 0000.0001)     ;
(PID.TID 0000.0001) PTRACERS_SOM_Advection = /* tracer uses SOM advection scheme */
(PID.TID 0000.0001)                   F
(PID.TID 0000.0001)     ;
(PID.TID 0000.0001) PTRACERS_ImplVertAdv = /* implicit vert. advection flag */
(PID.TID 0000.0001)                   F
(PID.TID 0000.0001)     ;
(PID.TID 0000.0001) PTRACERS_MultiDimAdv = /* tracer uses Multi-Dim advection */
(PID.TID 0000.0001)                   T
(PID.TID 0000.0001)     ;
(PID.TID 0000.0001) PTRACERS_AdamsBashGtr = /* apply AB on tracer tendency */
(PID.TID 0000.0001)                   F
(PID.TID 0000.0001)     ;
(PID.TID 0000.0001) PTRACERS_AdamsBash_Tr = /* apply AB on passive tracer */
(PID.TID 0000.0001)                   F
(PID.TID 0000.0001)     ;
(PID.TID 0000.0001) PTRACERS_diffKh = /* Laplacian Diffusivity */
(PID.TID 0000.0001)                 0.000000000000000E+00
(PID.TID 0000.0001)     ;
(PID.TID 0000.0001) PTRACERS_diffK4 = /* Biharmonic Diffusivity */
(PID.TID 0000.0001)                 0.000000000000000E+00
(PID.TID 0000.0001)     ;
(PID.TID 0000.0001) PTRACERS_diffKrNr = /* Vertical Diffusivity */
(PID.TID 0000.0001)    35 @  1.000000000000000E-05              /* K =  1: 35 */
(PID.TID 0000.0001)     ;
(PID.TID 0000.0001) PTRACERS_useGMRedi = /* apply GM-Redi */
(PID.TID 0000.0001)                   F
(PID.TID 0000.0001)     ;
(PID.TID 0000.0001) PTRACERS_useDWNSLP = /* apply DOWN-SLOPE Flow */
(PID.TID 0000.0001)                   F
(PID.TID 0000.0001)     ;
(PID.TID 0000.0001) PTRACERS_useKPP = /* apply KPP scheme */
(PID.TID 0000.0001)                   T
(PID.TID 0000.0001)     ;
(PID.TID 0000.0001) PTRACERS_ref = /* Reference vertical profile */
(PID.TID 0000.0001)    35 @  0.000000000000000E+00              /* K =  1: 35 */
(PID.TID 0000.0001)     ;
(PID.TID 0000.0001) PTRACERS_EvPrRn =/* tracer conc. in Evap. & Rain */
(PID.TID 0000.0001)                 1.234567000000000E+05
(PID.TID 0000.0001)     ;
(PID.TID 0000.0001)  -----------------------------------
(PID.TID 0000.0001)  tracer number :   31
(PID.TID 0000.0001) PTRACERS_names = /* Tracer short name */
(PID.TID 0000.0001)               'c12'
(PID.TID 0000.0001)     ;
(PID.TID 0000.0001) PTRACERS_long_names = /* Tracer long name */
(PID.TID 0000.0001)               ''
(PID.TID 0000.0001)     ;
(PID.TID 0000.0001) PTRACERS_ioLabel = /* tracer IO Label */
(PID.TID 0000.0001)               '31'
(PID.TID 0000.0001)     ;
(PID.TID 0000.0001) PTRACERS_advScheme = /* Advection Scheme */
(PID.TID 0000.0001)                      33
(PID.TID 0000.0001)     ;
(PID.TID 0000.0001) PTRACERS_SOM_Advection = /* tracer uses SOM advection scheme */
(PID.TID 0000.0001)                   F
(PID.TID 0000.0001)     ;
(PID.TID 0000.0001) PTRACERS_ImplVertAdv = /* implicit vert. advection flag */
(PID.TID 0000.0001)                   F
(PID.TID 0000.0001)     ;
(PID.TID 0000.0001) PTRACERS_MultiDimAdv = /* tracer uses Multi-Dim advection */
(PID.TID 0000.0001)                   T
(PID.TID 0000.0001)     ;
(PID.TID 0000.0001) PTRACERS_AdamsBashGtr = /* apply AB on tracer tendency */
(PID.TID 0000.0001)                   F
(PID.TID 0000.0001)     ;
(PID.TID 0000.0001) PTRACERS_AdamsBash_Tr = /* apply AB on passive tracer */
(PID.TID 0000.0001)                   F
(PID.TID 0000.0001)     ;
(PID.TID 0000.0001) PTRACERS_diffKh = /* Laplacian Diffusivity */
(PID.TID 0000.0001)                 0.000000000000000E+00
(PID.TID 0000.0001)     ;
(PID.TID 0000.0001) PTRACERS_diffK4 = /* Biharmonic Diffusivity */
(PID.TID 0000.0001)                 0.000000000000000E+00
(PID.TID 0000.0001)     ;
(PID.TID 0000.0001) PTRACERS_diffKrNr = /* Vertical Diffusivity */
(PID.TID 0000.0001)    35 @  1.000000000000000E-05              /* K =  1: 35 */
(PID.TID 0000.0001)     ;
(PID.TID 0000.0001) PTRACERS_useGMRedi = /* apply GM-Redi */
(PID.TID 0000.0001)                   F
(PID.TID 0000.0001)     ;
(PID.TID 0000.0001) PTRACERS_useDWNSLP = /* apply DOWN-SLOPE Flow */
(PID.TID 0000.0001)                   F
(PID.TID 0000.0001)     ;
(PID.TID 0000.0001) PTRACERS_useKPP = /* apply KPP scheme */
(PID.TID 0000.0001)                   T
(PID.TID 0000.0001)     ;
(PID.TID 0000.0001) PTRACERS_ref = /* Reference vertical profile */
(PID.TID 0000.0001)    35 @  0.000000000000000E+00              /* K =  1: 35 */
(PID.TID 0000.0001)     ;
(PID.TID 0000.0001) PTRACERS_EvPrRn =/* tracer conc. in Evap. & Rain */
(PID.TID 0000.0001)                 1.234567000000000E+05
(PID.TID 0000.0001)     ;
(PID.TID 0000.0001)  -----------------------------------
(PID.TID 0000.0001)  tracer number :   32
(PID.TID 0000.0001) PTRACERS_names = /* Tracer short name */
(PID.TID 0000.0001)               'c13'
(PID.TID 0000.0001)     ;
(PID.TID 0000.0001) PTRACERS_long_names = /* Tracer long name */
(PID.TID 0000.0001)               ''
(PID.TID 0000.0001)     ;
(PID.TID 0000.0001) PTRACERS_ioLabel = /* tracer IO Label */
(PID.TID 0000.0001)               '32'
(PID.TID 0000.0001)     ;
(PID.TID 0000.0001) PTRACERS_advScheme = /* Advection Scheme */
(PID.TID 0000.0001)                      33
(PID.TID 0000.0001)     ;
(PID.TID 0000.0001) PTRACERS_SOM_Advection = /* tracer uses SOM advection scheme */
(PID.TID 0000.0001)                   F
(PID.TID 0000.0001)     ;
(PID.TID 0000.0001) PTRACERS_ImplVertAdv = /* implicit vert. advection flag */
(PID.TID 0000.0001)                   F
(PID.TID 0000.0001)     ;
(PID.TID 0000.0001) PTRACERS_MultiDimAdv = /* tracer uses Multi-Dim advection */
(PID.TID 0000.0001)                   T
(PID.TID 0000.0001)     ;
(PID.TID 0000.0001) PTRACERS_AdamsBashGtr = /* apply AB on tracer tendency */
(PID.TID 0000.0001)                   F
(PID.TID 0000.0001)     ;
(PID.TID 0000.0001) PTRACERS_AdamsBash_Tr = /* apply AB on passive tracer */
(PID.TID 0000.0001)                   F
(PID.TID 0000.0001)     ;
(PID.TID 0000.0001) PTRACERS_diffKh = /* Laplacian Diffusivity */
(PID.TID 0000.0001)                 0.000000000000000E+00
(PID.TID 0000.0001)     ;
(PID.TID 0000.0001) PTRACERS_diffK4 = /* Biharmonic Diffusivity */
(PID.TID 0000.0001)                 0.000000000000000E+00
(PID.TID 0000.0001)     ;
(PID.TID 0000.0001) PTRACERS_diffKrNr = /* Vertical Diffusivity */
(PID.TID 0000.0001)    35 @  1.000000000000000E-05              /* K =  1: 35 */
(PID.TID 0000.0001)     ;
(PID.TID 0000.0001) PTRACERS_useGMRedi = /* apply GM-Redi */
(PID.TID 0000.0001)                   F
(PID.TID 0000.0001)     ;
(PID.TID 0000.0001) PTRACERS_useDWNSLP = /* apply DOWN-SLOPE Flow */
(PID.TID 0000.0001)                   F
(PID.TID 0000.0001)     ;
(PID.TID 0000.0001) PTRACERS_useKPP = /* apply KPP scheme */
(PID.TID 0000.0001)                   T
(PID.TID 0000.0001)     ;
(PID.TID 0000.0001) PTRACERS_ref = /* Reference vertical profile */
(PID.TID 0000.0001)    35 @  0.000000000000000E+00              /* K =  1: 35 */
(PID.TID 0000.0001)     ;
(PID.TID 0000.0001) PTRACERS_EvPrRn =/* tracer conc. in Evap. & Rain */
(PID.TID 0000.0001)                 1.234567000000000E+05
(PID.TID 0000.0001)     ;
(PID.TID 0000.0001)  -----------------------------------
(PID.TID 0000.0001)  tracer number :   33
(PID.TID 0000.0001) PTRACERS_names = /* Tracer short name */
(PID.TID 0000.0001)               'c14'
(PID.TID 0000.0001)     ;
(PID.TID 0000.0001) PTRACERS_long_names = /* Tracer long name */
(PID.TID 0000.0001)               ''
(PID.TID 0000.0001)     ;
(PID.TID 0000.0001) PTRACERS_ioLabel = /* tracer IO Label */
(PID.TID 0000.0001)               '33'
(PID.TID 0000.0001)     ;
(PID.TID 0000.0001) PTRACERS_advScheme = /* Advection Scheme */
(PID.TID 0000.0001)                      33
(PID.TID 0000.0001)     ;
(PID.TID 0000.0001) PTRACERS_SOM_Advection = /* tracer uses SOM advection scheme */
(PID.TID 0000.0001)                   F
(PID.TID 0000.0001)     ;
(PID.TID 0000.0001) PTRACERS_ImplVertAdv = /* implicit vert. advection flag */
(PID.TID 0000.0001)                   F
(PID.TID 0000.0001)     ;
(PID.TID 0000.0001) PTRACERS_MultiDimAdv = /* tracer uses Multi-Dim advection */
(PID.TID 0000.0001)                   T
(PID.TID 0000.0001)     ;
(PID.TID 0000.0001) PTRACERS_AdamsBashGtr = /* apply AB on tracer tendency */
(PID.TID 0000.0001)                   F
(PID.TID 0000.0001)     ;
(PID.TID 0000.0001) PTRACERS_AdamsBash_Tr = /* apply AB on passive tracer */
(PID.TID 0000.0001)                   F
(PID.TID 0000.0001)     ;
(PID.TID 0000.0001) PTRACERS_diffKh = /* Laplacian Diffusivity */
(PID.TID 0000.0001)                 0.000000000000000E+00
(PID.TID 0000.0001)     ;
(PID.TID 0000.0001) PTRACERS_diffK4 = /* Biharmonic Diffusivity */
(PID.TID 0000.0001)                 0.000000000000000E+00
(PID.TID 0000.0001)     ;
(PID.TID 0000.0001) PTRACERS_diffKrNr = /* Vertical Diffusivity */
(PID.TID 0000.0001)    35 @  1.000000000000000E-05              /* K =  1: 35 */
(PID.TID 0000.0001)     ;
(PID.TID 0000.0001) PTRACERS_useGMRedi = /* apply GM-Redi */
(PID.TID 0000.0001)                   F
(PID.TID 0000.0001)     ;
(PID.TID 0000.0001) PTRACERS_useDWNSLP = /* apply DOWN-SLOPE Flow */
(PID.TID 0000.0001)                   F
(PID.TID 0000.0001)     ;
(PID.TID 0000.0001) PTRACERS_useKPP = /* apply KPP scheme */
(PID.TID 0000.0001)                   T
(PID.TID 0000.0001)     ;
(PID.TID 0000.0001) PTRACERS_ref = /* Reference vertical profile */
(PID.TID 0000.0001)    35 @  0.000000000000000E+00              /* K =  1: 35 */
(PID.TID 0000.0001)     ;
(PID.TID 0000.0001) PTRACERS_EvPrRn =/* tracer conc. in Evap. & Rain */
(PID.TID 0000.0001)                 1.234567000000000E+05
(PID.TID 0000.0001)     ;
(PID.TID 0000.0001)  -----------------------------------
(PID.TID 0000.0001)  tracer number :   34
(PID.TID 0000.0001) PTRACERS_names = /* Tracer short name */
(PID.TID 0000.0001)               'c15'
(PID.TID 0000.0001)     ;
(PID.TID 0000.0001) PTRACERS_long_names = /* Tracer long name */
(PID.TID 0000.0001)               ''
(PID.TID 0000.0001)     ;
(PID.TID 0000.0001) PTRACERS_ioLabel = /* tracer IO Label */
(PID.TID 0000.0001)               '34'
(PID.TID 0000.0001)     ;
(PID.TID 0000.0001) PTRACERS_advScheme = /* Advection Scheme */
(PID.TID 0000.0001)                      33
(PID.TID 0000.0001)     ;
(PID.TID 0000.0001) PTRACERS_SOM_Advection = /* tracer uses SOM advection scheme */
(PID.TID 0000.0001)                   F
(PID.TID 0000.0001)     ;
(PID.TID 0000.0001) PTRACERS_ImplVertAdv = /* implicit vert. advection flag */
(PID.TID 0000.0001)                   F
(PID.TID 0000.0001)     ;
(PID.TID 0000.0001) PTRACERS_MultiDimAdv = /* tracer uses Multi-Dim advection */
(PID.TID 0000.0001)                   T
(PID.TID 0000.0001)     ;
(PID.TID 0000.0001) PTRACERS_AdamsBashGtr = /* apply AB on tracer tendency */
(PID.TID 0000.0001)                   F
(PID.TID 0000.0001)     ;
(PID.TID 0000.0001) PTRACERS_AdamsBash_Tr = /* apply AB on passive tracer */
(PID.TID 0000.0001)                   F
(PID.TID 0000.0001)     ;
(PID.TID 0000.0001) PTRACERS_diffKh = /* Laplacian Diffusivity */
(PID.TID 0000.0001)                 0.000000000000000E+00
(PID.TID 0000.0001)     ;
(PID.TID 0000.0001) PTRACERS_diffK4 = /* Biharmonic Diffusivity */
(PID.TID 0000.0001)                 0.000000000000000E+00
(PID.TID 0000.0001)     ;
(PID.TID 0000.0001) PTRACERS_diffKrNr = /* Vertical Diffusivity */
(PID.TID 0000.0001)    35 @  1.000000000000000E-05              /* K =  1: 35 */
(PID.TID 0000.0001)     ;
(PID.TID 0000.0001) PTRACERS_useGMRedi = /* apply GM-Redi */
(PID.TID 0000.0001)                   F
(PID.TID 0000.0001)     ;
(PID.TID 0000.0001) PTRACERS_useDWNSLP = /* apply DOWN-SLOPE Flow */
(PID.TID 0000.0001)                   F
(PID.TID 0000.0001)     ;
(PID.TID 0000.0001) PTRACERS_useKPP = /* apply KPP scheme */
(PID.TID 0000.0001)                   T
(PID.TID 0000.0001)     ;
(PID.TID 0000.0001) PTRACERS_ref = /* Reference vertical profile */
(PID.TID 0000.0001)    35 @  0.000000000000000E+00              /* K =  1: 35 */
(PID.TID 0000.0001)     ;
(PID.TID 0000.0001) PTRACERS_EvPrRn =/* tracer conc. in Evap. & Rain */
(PID.TID 0000.0001)                 1.234567000000000E+05
(PID.TID 0000.0001)     ;
(PID.TID 0000.0001)  -----------------------------------
(PID.TID 0000.0001)  tracer number :   35
(PID.TID 0000.0001) PTRACERS_names = /* Tracer short name */
(PID.TID 0000.0001)               'c16'
(PID.TID 0000.0001)     ;
(PID.TID 0000.0001) PTRACERS_long_names = /* Tracer long name */
(PID.TID 0000.0001)               ''
(PID.TID 0000.0001)     ;
(PID.TID 0000.0001) PTRACERS_ioLabel = /* tracer IO Label */
(PID.TID 0000.0001)               '35'
(PID.TID 0000.0001)     ;
(PID.TID 0000.0001) PTRACERS_advScheme = /* Advection Scheme */
(PID.TID 0000.0001)                      33
(PID.TID 0000.0001)     ;
(PID.TID 0000.0001) PTRACERS_SOM_Advection = /* tracer uses SOM advection scheme */
(PID.TID 0000.0001)                   F
(PID.TID 0000.0001)     ;
(PID.TID 0000.0001) PTRACERS_ImplVertAdv = /* implicit vert. advection flag */
(PID.TID 0000.0001)                   F
(PID.TID 0000.0001)     ;
(PID.TID 0000.0001) PTRACERS_MultiDimAdv = /* tracer uses Multi-Dim advection */
(PID.TID 0000.0001)                   T
(PID.TID 0000.0001)     ;
(PID.TID 0000.0001) PTRACERS_AdamsBashGtr = /* apply AB on tracer tendency */
(PID.TID 0000.0001)                   F
(PID.TID 0000.0001)     ;
(PID.TID 0000.0001) PTRACERS_AdamsBash_Tr = /* apply AB on passive tracer */
(PID.TID 0000.0001)                   F
(PID.TID 0000.0001)     ;
(PID.TID 0000.0001) PTRACERS_diffKh = /* Laplacian Diffusivity */
(PID.TID 0000.0001)                 0.000000000000000E+00
(PID.TID 0000.0001)     ;
(PID.TID 0000.0001) PTRACERS_diffK4 = /* Biharmonic Diffusivity */
(PID.TID 0000.0001)                 0.000000000000000E+00
(PID.TID 0000.0001)     ;
(PID.TID 0000.0001) PTRACERS_diffKrNr = /* Vertical Diffusivity */
(PID.TID 0000.0001)    35 @  1.000000000000000E-05              /* K =  1: 35 */
(PID.TID 0000.0001)     ;
(PID.TID 0000.0001) PTRACERS_useGMRedi = /* apply GM-Redi */
(PID.TID 0000.0001)                   F
(PID.TID 0000.0001)     ;
(PID.TID 0000.0001) PTRACERS_useDWNSLP = /* apply DOWN-SLOPE Flow */
(PID.TID 0000.0001)                   F
(PID.TID 0000.0001)     ;
(PID.TID 0000.0001) PTRACERS_useKPP = /* apply KPP scheme */
(PID.TID 0000.0001)                   T
(PID.TID 0000.0001)     ;
(PID.TID 0000.0001) PTRACERS_ref = /* Reference vertical profile */
(PID.TID 0000.0001)    35 @  0.000000000000000E+00              /* K =  1: 35 */
(PID.TID 0000.0001)     ;
(PID.TID 0000.0001) PTRACERS_EvPrRn =/* tracer conc. in Evap. & Rain */
(PID.TID 0000.0001)                 1.234567000000000E+05
(PID.TID 0000.0001)     ;
(PID.TID 0000.0001)  -----------------------------------
(PID.TID 0000.0001)  tracer number :   36
(PID.TID 0000.0001) PTRACERS_names = /* Tracer short name */
(PID.TID 0000.0001)               'c17'
(PID.TID 0000.0001)     ;
(PID.TID 0000.0001) PTRACERS_long_names = /* Tracer long name */
(PID.TID 0000.0001)               ''
(PID.TID 0000.0001)     ;
(PID.TID 0000.0001) PTRACERS_ioLabel = /* tracer IO Label */
(PID.TID 0000.0001)               '36'
(PID.TID 0000.0001)     ;
(PID.TID 0000.0001) PTRACERS_advScheme = /* Advection Scheme */
(PID.TID 0000.0001)                      33
(PID.TID 0000.0001)     ;
(PID.TID 0000.0001) PTRACERS_SOM_Advection = /* tracer uses SOM advection scheme */
(PID.TID 0000.0001)                   F
(PID.TID 0000.0001)     ;
(PID.TID 0000.0001) PTRACERS_ImplVertAdv = /* implicit vert. advection flag */
(PID.TID 0000.0001)                   F
(PID.TID 0000.0001)     ;
(PID.TID 0000.0001) PTRACERS_MultiDimAdv = /* tracer uses Multi-Dim advection */
(PID.TID 0000.0001)                   T
(PID.TID 0000.0001)     ;
(PID.TID 0000.0001) PTRACERS_AdamsBashGtr = /* apply AB on tracer tendency */
(PID.TID 0000.0001)                   F
(PID.TID 0000.0001)     ;
(PID.TID 0000.0001) PTRACERS_AdamsBash_Tr = /* apply AB on passive tracer */
(PID.TID 0000.0001)                   F
(PID.TID 0000.0001)     ;
(PID.TID 0000.0001) PTRACERS_diffKh = /* Laplacian Diffusivity */
(PID.TID 0000.0001)                 0.000000000000000E+00
(PID.TID 0000.0001)     ;
(PID.TID 0000.0001) PTRACERS_diffK4 = /* Biharmonic Diffusivity */
(PID.TID 0000.0001)                 0.000000000000000E+00
(PID.TID 0000.0001)     ;
(PID.TID 0000.0001) PTRACERS_diffKrNr = /* Vertical Diffusivity */
(PID.TID 0000.0001)    35 @  1.000000000000000E-05              /* K =  1: 35 */
(PID.TID 0000.0001)     ;
(PID.TID 0000.0001) PTRACERS_useGMRedi = /* apply GM-Redi */
(PID.TID 0000.0001)                   F
(PID.TID 0000.0001)     ;
(PID.TID 0000.0001) PTRACERS_useDWNSLP = /* apply DOWN-SLOPE Flow */
(PID.TID 0000.0001)                   F
(PID.TID 0000.0001)     ;
(PID.TID 0000.0001) PTRACERS_useKPP = /* apply KPP scheme */
(PID.TID 0000.0001)                   T
(PID.TID 0000.0001)     ;
(PID.TID 0000.0001) PTRACERS_ref = /* Reference vertical profile */
(PID.TID 0000.0001)    35 @  0.000000000000000E+00              /* K =  1: 35 */
(PID.TID 0000.0001)     ;
(PID.TID 0000.0001) PTRACERS_EvPrRn =/* tracer conc. in Evap. & Rain */
(PID.TID 0000.0001)                 1.234567000000000E+05
(PID.TID 0000.0001)     ;
(PID.TID 0000.0001)  -----------------------------------
(PID.TID 0000.0001)  tracer number :   37
(PID.TID 0000.0001) PTRACERS_names = /* Tracer short name */
(PID.TID 0000.0001)               'c18'
(PID.TID 0000.0001)     ;
(PID.TID 0000.0001) PTRACERS_long_names = /* Tracer long name */
(PID.TID 0000.0001)               ''
(PID.TID 0000.0001)     ;
(PID.TID 0000.0001) PTRACERS_ioLabel = /* tracer IO Label */
(PID.TID 0000.0001)               '37'
(PID.TID 0000.0001)     ;
(PID.TID 0000.0001) PTRACERS_advScheme = /* Advection Scheme */
(PID.TID 0000.0001)                      33
(PID.TID 0000.0001)     ;
(PID.TID 0000.0001) PTRACERS_SOM_Advection = /* tracer uses SOM advection scheme */
(PID.TID 0000.0001)                   F
(PID.TID 0000.0001)     ;
(PID.TID 0000.0001) PTRACERS_ImplVertAdv = /* implicit vert. advection flag */
(PID.TID 0000.0001)                   F
(PID.TID 0000.0001)     ;
(PID.TID 0000.0001) PTRACERS_MultiDimAdv = /* tracer uses Multi-Dim advection */
(PID.TID 0000.0001)                   T
(PID.TID 0000.0001)     ;
(PID.TID 0000.0001) PTRACERS_AdamsBashGtr = /* apply AB on tracer tendency */
(PID.TID 0000.0001)                   F
(PID.TID 0000.0001)     ;
(PID.TID 0000.0001) PTRACERS_AdamsBash_Tr = /* apply AB on passive tracer */
(PID.TID 0000.0001)                   F
(PID.TID 0000.0001)     ;
(PID.TID 0000.0001) PTRACERS_diffKh = /* Laplacian Diffusivity */
(PID.TID 0000.0001)                 0.000000000000000E+00
(PID.TID 0000.0001)     ;
(PID.TID 0000.0001) PTRACERS_diffK4 = /* Biharmonic Diffusivity */
(PID.TID 0000.0001)                 0.000000000000000E+00
(PID.TID 0000.0001)     ;
(PID.TID 0000.0001) PTRACERS_diffKrNr = /* Vertical Diffusivity */
(PID.TID 0000.0001)    35 @  1.000000000000000E-05              /* K =  1: 35 */
(PID.TID 0000.0001)     ;
(PID.TID 0000.0001) PTRACERS_useGMRedi = /* apply GM-Redi */
(PID.TID 0000.0001)                   F
(PID.TID 0000.0001)     ;
(PID.TID 0000.0001) PTRACERS_useDWNSLP = /* apply DOWN-SLOPE Flow */
(PID.TID 0000.0001)                   F
(PID.TID 0000.0001)     ;
(PID.TID 0000.0001) PTRACERS_useKPP = /* apply KPP scheme */
(PID.TID 0000.0001)                   T
(PID.TID 0000.0001)     ;
(PID.TID 0000.0001) PTRACERS_ref = /* Reference vertical profile */
(PID.TID 0000.0001)    35 @  0.000000000000000E+00              /* K =  1: 35 */
(PID.TID 0000.0001)     ;
(PID.TID 0000.0001) PTRACERS_EvPrRn =/* tracer conc. in Evap. & Rain */
(PID.TID 0000.0001)                 1.234567000000000E+05
(PID.TID 0000.0001)     ;
(PID.TID 0000.0001)  -----------------------------------
(PID.TID 0000.0001)  tracer number :   38
(PID.TID 0000.0001) PTRACERS_names = /* Tracer short name */
(PID.TID 0000.0001)               'c19'
(PID.TID 0000.0001)     ;
(PID.TID 0000.0001) PTRACERS_long_names = /* Tracer long name */
(PID.TID 0000.0001)               ''
(PID.TID 0000.0001)     ;
(PID.TID 0000.0001) PTRACERS_ioLabel = /* tracer IO Label */
(PID.TID 0000.0001)               '38'
(PID.TID 0000.0001)     ;
(PID.TID 0000.0001) PTRACERS_advScheme = /* Advection Scheme */
(PID.TID 0000.0001)                      33
(PID.TID 0000.0001)     ;
(PID.TID 0000.0001) PTRACERS_SOM_Advection = /* tracer uses SOM advection scheme */
(PID.TID 0000.0001)                   F
(PID.TID 0000.0001)     ;
(PID.TID 0000.0001) PTRACERS_ImplVertAdv = /* implicit vert. advection flag */
(PID.TID 0000.0001)                   F
(PID.TID 0000.0001)     ;
(PID.TID 0000.0001) PTRACERS_MultiDimAdv = /* tracer uses Multi-Dim advection */
(PID.TID 0000.0001)                   T
(PID.TID 0000.0001)     ;
(PID.TID 0000.0001) PTRACERS_AdamsBashGtr = /* apply AB on tracer tendency */
(PID.TID 0000.0001)                   F
(PID.TID 0000.0001)     ;
(PID.TID 0000.0001) PTRACERS_AdamsBash_Tr = /* apply AB on passive tracer */
(PID.TID 0000.0001)                   F
(PID.TID 0000.0001)     ;
(PID.TID 0000.0001) PTRACERS_diffKh = /* Laplacian Diffusivity */
(PID.TID 0000.0001)                 0.000000000000000E+00
(PID.TID 0000.0001)     ;
(PID.TID 0000.0001) PTRACERS_diffK4 = /* Biharmonic Diffusivity */
(PID.TID 0000.0001)                 0.000000000000000E+00
(PID.TID 0000.0001)     ;
(PID.TID 0000.0001) PTRACERS_diffKrNr = /* Vertical Diffusivity */
(PID.TID 0000.0001)    35 @  1.000000000000000E-05              /* K =  1: 35 */
(PID.TID 0000.0001)     ;
(PID.TID 0000.0001) PTRACERS_useGMRedi = /* apply GM-Redi */
(PID.TID 0000.0001)                   F
(PID.TID 0000.0001)     ;
(PID.TID 0000.0001) PTRACERS_useDWNSLP = /* apply DOWN-SLOPE Flow */
(PID.TID 0000.0001)                   F
(PID.TID 0000.0001)     ;
(PID.TID 0000.0001) PTRACERS_useKPP = /* apply KPP scheme */
(PID.TID 0000.0001)                   T
(PID.TID 0000.0001)     ;
(PID.TID 0000.0001) PTRACERS_ref = /* Reference vertical profile */
(PID.TID 0000.0001)    35 @  0.000000000000000E+00              /* K =  1: 35 */
(PID.TID 0000.0001)     ;
(PID.TID 0000.0001) PTRACERS_EvPrRn =/* tracer conc. in Evap. & Rain */
(PID.TID 0000.0001)                 1.234567000000000E+05
(PID.TID 0000.0001)     ;
(PID.TID 0000.0001)  -----------------------------------
(PID.TID 0000.0001)  tracer number :   39
(PID.TID 0000.0001) PTRACERS_names = /* Tracer short name */
(PID.TID 0000.0001)               'c20'
(PID.TID 0000.0001)     ;
(PID.TID 0000.0001) PTRACERS_long_names = /* Tracer long name */
(PID.TID 0000.0001)               ''
(PID.TID 0000.0001)     ;
(PID.TID 0000.0001) PTRACERS_ioLabel = /* tracer IO Label */
(PID.TID 0000.0001)               '39'
(PID.TID 0000.0001)     ;
(PID.TID 0000.0001) PTRACERS_advScheme = /* Advection Scheme */
(PID.TID 0000.0001)                      33
(PID.TID 0000.0001)     ;
(PID.TID 0000.0001) PTRACERS_SOM_Advection = /* tracer uses SOM advection scheme */
(PID.TID 0000.0001)                   F
(PID.TID 0000.0001)     ;
(PID.TID 0000.0001) PTRACERS_ImplVertAdv = /* implicit vert. advection flag */
(PID.TID 0000.0001)                   F
(PID.TID 0000.0001)     ;
(PID.TID 0000.0001) PTRACERS_MultiDimAdv = /* tracer uses Multi-Dim advection */
(PID.TID 0000.0001)                   T
(PID.TID 0000.0001)     ;
(PID.TID 0000.0001) PTRACERS_AdamsBashGtr = /* apply AB on tracer tendency */
(PID.TID 0000.0001)                   F
(PID.TID 0000.0001)     ;
(PID.TID 0000.0001) PTRACERS_AdamsBash_Tr = /* apply AB on passive tracer */
(PID.TID 0000.0001)                   F
(PID.TID 0000.0001)     ;
(PID.TID 0000.0001) PTRACERS_diffKh = /* Laplacian Diffusivity */
(PID.TID 0000.0001)                 0.000000000000000E+00
(PID.TID 0000.0001)     ;
(PID.TID 0000.0001) PTRACERS_diffK4 = /* Biharmonic Diffusivity */
(PID.TID 0000.0001)                 0.000000000000000E+00
(PID.TID 0000.0001)     ;
(PID.TID 0000.0001) PTRACERS_diffKrNr = /* Vertical Diffusivity */
(PID.TID 0000.0001)    35 @  1.000000000000000E-05              /* K =  1: 35 */
(PID.TID 0000.0001)     ;
(PID.TID 0000.0001) PTRACERS_useGMRedi = /* apply GM-Redi */
(PID.TID 0000.0001)                   F
(PID.TID 0000.0001)     ;
(PID.TID 0000.0001) PTRACERS_useDWNSLP = /* apply DOWN-SLOPE Flow */
(PID.TID 0000.0001)                   F
(PID.TID 0000.0001)     ;
(PID.TID 0000.0001) PTRACERS_useKPP = /* apply KPP scheme */
(PID.TID 0000.0001)                   T
(PID.TID 0000.0001)     ;
(PID.TID 0000.0001) PTRACERS_ref = /* Reference vertical profile */
(PID.TID 0000.0001)    35 @  0.000000000000000E+00              /* K =  1: 35 */
(PID.TID 0000.0001)     ;
(PID.TID 0000.0001) PTRACERS_EvPrRn =/* tracer conc. in Evap. & Rain */
(PID.TID 0000.0001)                 1.234567000000000E+05
(PID.TID 0000.0001)     ;
(PID.TID 0000.0001)  -----------------------------------
(PID.TID 0000.0001)  tracer number :   40
(PID.TID 0000.0001) PTRACERS_names = /* Tracer short name */
(PID.TID 0000.0001)               'c21'
(PID.TID 0000.0001)     ;
(PID.TID 0000.0001) PTRACERS_long_names = /* Tracer long name */
(PID.TID 0000.0001)               ''
(PID.TID 0000.0001)     ;
(PID.TID 0000.0001) PTRACERS_ioLabel = /* tracer IO Label */
(PID.TID 0000.0001)               '40'
(PID.TID 0000.0001)     ;
(PID.TID 0000.0001) PTRACERS_advScheme = /* Advection Scheme */
(PID.TID 0000.0001)                      33
(PID.TID 0000.0001)     ;
(PID.TID 0000.0001) PTRACERS_SOM_Advection = /* tracer uses SOM advection scheme */
(PID.TID 0000.0001)                   F
(PID.TID 0000.0001)     ;
(PID.TID 0000.0001) PTRACERS_ImplVertAdv = /* implicit vert. advection flag */
(PID.TID 0000.0001)                   F
(PID.TID 0000.0001)     ;
(PID.TID 0000.0001) PTRACERS_MultiDimAdv = /* tracer uses Multi-Dim advection */
(PID.TID 0000.0001)                   T
(PID.TID 0000.0001)     ;
(PID.TID 0000.0001) PTRACERS_AdamsBashGtr = /* apply AB on tracer tendency */
(PID.TID 0000.0001)                   F
(PID.TID 0000.0001)     ;
(PID.TID 0000.0001) PTRACERS_AdamsBash_Tr = /* apply AB on passive tracer */
(PID.TID 0000.0001)                   F
(PID.TID 0000.0001)     ;
(PID.TID 0000.0001) PTRACERS_diffKh = /* Laplacian Diffusivity */
(PID.TID 0000.0001)                 0.000000000000000E+00
(PID.TID 0000.0001)     ;
(PID.TID 0000.0001) PTRACERS_diffK4 = /* Biharmonic Diffusivity */
(PID.TID 0000.0001)                 0.000000000000000E+00
(PID.TID 0000.0001)     ;
(PID.TID 0000.0001) PTRACERS_diffKrNr = /* Vertical Diffusivity */
(PID.TID 0000.0001)    35 @  1.000000000000000E-05              /* K =  1: 35 */
(PID.TID 0000.0001)     ;
(PID.TID 0000.0001) PTRACERS_useGMRedi = /* apply GM-Redi */
(PID.TID 0000.0001)                   F
(PID.TID 0000.0001)     ;
(PID.TID 0000.0001) PTRACERS_useDWNSLP = /* apply DOWN-SLOPE Flow */
(PID.TID 0000.0001)                   F
(PID.TID 0000.0001)     ;
(PID.TID 0000.0001) PTRACERS_useKPP = /* apply KPP scheme */
(PID.TID 0000.0001)                   T
(PID.TID 0000.0001)     ;
(PID.TID 0000.0001) PTRACERS_ref = /* Reference vertical profile */
(PID.TID 0000.0001)    35 @  0.000000000000000E+00              /* K =  1: 35 */
(PID.TID 0000.0001)     ;
(PID.TID 0000.0001) PTRACERS_EvPrRn =/* tracer conc. in Evap. & Rain */
(PID.TID 0000.0001)                 1.234567000000000E+05
(PID.TID 0000.0001)     ;
(PID.TID 0000.0001)  -----------------------------------
(PID.TID 0000.0001)  tracer number :   41
(PID.TID 0000.0001) PTRACERS_names = /* Tracer short name */
(PID.TID 0000.0001)               'c22'
(PID.TID 0000.0001)     ;
(PID.TID 0000.0001) PTRACERS_long_names = /* Tracer long name */
(PID.TID 0000.0001)               ''
(PID.TID 0000.0001)     ;
(PID.TID 0000.0001) PTRACERS_ioLabel = /* tracer IO Label */
(PID.TID 0000.0001)               '41'
(PID.TID 0000.0001)     ;
(PID.TID 0000.0001) PTRACERS_advScheme = /* Advection Scheme */
(PID.TID 0000.0001)                      33
(PID.TID 0000.0001)     ;
(PID.TID 0000.0001) PTRACERS_SOM_Advection = /* tracer uses SOM advection scheme */
(PID.TID 0000.0001)                   F
(PID.TID 0000.0001)     ;
(PID.TID 0000.0001) PTRACERS_ImplVertAdv = /* implicit vert. advection flag */
(PID.TID 0000.0001)                   F
(PID.TID 0000.0001)     ;
(PID.TID 0000.0001) PTRACERS_MultiDimAdv = /* tracer uses Multi-Dim advection */
(PID.TID 0000.0001)                   T
(PID.TID 0000.0001)     ;
(PID.TID 0000.0001) PTRACERS_AdamsBashGtr = /* apply AB on tracer tendency */
(PID.TID 0000.0001)                   F
(PID.TID 0000.0001)     ;
(PID.TID 0000.0001) PTRACERS_AdamsBash_Tr = /* apply AB on passive tracer */
(PID.TID 0000.0001)                   F
(PID.TID 0000.0001)     ;
(PID.TID 0000.0001) PTRACERS_diffKh = /* Laplacian Diffusivity */
(PID.TID 0000.0001)                 0.000000000000000E+00
(PID.TID 0000.0001)     ;
(PID.TID 0000.0001) PTRACERS_diffK4 = /* Biharmonic Diffusivity */
(PID.TID 0000.0001)                 0.000000000000000E+00
(PID.TID 0000.0001)     ;
(PID.TID 0000.0001) PTRACERS_diffKrNr = /* Vertical Diffusivity */
(PID.TID 0000.0001)    35 @  1.000000000000000E-05              /* K =  1: 35 */
(PID.TID 0000.0001)     ;
(PID.TID 0000.0001) PTRACERS_useGMRedi = /* apply GM-Redi */
(PID.TID 0000.0001)                   F
(PID.TID 0000.0001)     ;
(PID.TID 0000.0001) PTRACERS_useDWNSLP = /* apply DOWN-SLOPE Flow */
(PID.TID 0000.0001)                   F
(PID.TID 0000.0001)     ;
(PID.TID 0000.0001) PTRACERS_useKPP = /* apply KPP scheme */
(PID.TID 0000.0001)                   T
(PID.TID 0000.0001)     ;
(PID.TID 0000.0001) PTRACERS_ref = /* Reference vertical profile */
(PID.TID 0000.0001)    35 @  0.000000000000000E+00              /* K =  1: 35 */
(PID.TID 0000.0001)     ;
(PID.TID 0000.0001) PTRACERS_EvPrRn =/* tracer conc. in Evap. & Rain */
(PID.TID 0000.0001)                 1.234567000000000E+05
(PID.TID 0000.0001)     ;
(PID.TID 0000.0001)  -----------------------------------
(PID.TID 0000.0001)  tracer number :   42
(PID.TID 0000.0001) PTRACERS_names = /* Tracer short name */
(PID.TID 0000.0001)               'c23'
(PID.TID 0000.0001)     ;
(PID.TID 0000.0001) PTRACERS_long_names = /* Tracer long name */
(PID.TID 0000.0001)               ''
(PID.TID 0000.0001)     ;
(PID.TID 0000.0001) PTRACERS_ioLabel = /* tracer IO Label */
(PID.TID 0000.0001)               '42'
(PID.TID 0000.0001)     ;
(PID.TID 0000.0001) PTRACERS_advScheme = /* Advection Scheme */
(PID.TID 0000.0001)                      33
(PID.TID 0000.0001)     ;
(PID.TID 0000.0001) PTRACERS_SOM_Advection = /* tracer uses SOM advection scheme */
(PID.TID 0000.0001)                   F
(PID.TID 0000.0001)     ;
(PID.TID 0000.0001) PTRACERS_ImplVertAdv = /* implicit vert. advection flag */
(PID.TID 0000.0001)                   F
(PID.TID 0000.0001)     ;
(PID.TID 0000.0001) PTRACERS_MultiDimAdv = /* tracer uses Multi-Dim advection */
(PID.TID 0000.0001)                   T
(PID.TID 0000.0001)     ;
(PID.TID 0000.0001) PTRACERS_AdamsBashGtr = /* apply AB on tracer tendency */
(PID.TID 0000.0001)                   F
(PID.TID 0000.0001)     ;
(PID.TID 0000.0001) PTRACERS_AdamsBash_Tr = /* apply AB on passive tracer */
(PID.TID 0000.0001)                   F
(PID.TID 0000.0001)     ;
(PID.TID 0000.0001) PTRACERS_diffKh = /* Laplacian Diffusivity */
(PID.TID 0000.0001)                 0.000000000000000E+00
(PID.TID 0000.0001)     ;
(PID.TID 0000.0001) PTRACERS_diffK4 = /* Biharmonic Diffusivity */
(PID.TID 0000.0001)                 0.000000000000000E+00
(PID.TID 0000.0001)     ;
(PID.TID 0000.0001) PTRACERS_diffKrNr = /* Vertical Diffusivity */
(PID.TID 0000.0001)    35 @  1.000000000000000E-05              /* K =  1: 35 */
(PID.TID 0000.0001)     ;
(PID.TID 0000.0001) PTRACERS_useGMRedi = /* apply GM-Redi */
(PID.TID 0000.0001)                   F
(PID.TID 0000.0001)     ;
(PID.TID 0000.0001) PTRACERS_useDWNSLP = /* apply DOWN-SLOPE Flow */
(PID.TID 0000.0001)                   F
(PID.TID 0000.0001)     ;
(PID.TID 0000.0001) PTRACERS_useKPP = /* apply KPP scheme */
(PID.TID 0000.0001)                   T
(PID.TID 0000.0001)     ;
(PID.TID 0000.0001) PTRACERS_ref = /* Reference vertical profile */
(PID.TID 0000.0001)    35 @  0.000000000000000E+00              /* K =  1: 35 */
(PID.TID 0000.0001)     ;
(PID.TID 0000.0001) PTRACERS_EvPrRn =/* tracer conc. in Evap. & Rain */
(PID.TID 0000.0001)                 1.234567000000000E+05
(PID.TID 0000.0001)     ;
(PID.TID 0000.0001)  -----------------------------------
(PID.TID 0000.0001)  tracer number :   43
(PID.TID 0000.0001) PTRACERS_names = /* Tracer short name */
(PID.TID 0000.0001)               'c24'
(PID.TID 0000.0001)     ;
(PID.TID 0000.0001) PTRACERS_long_names = /* Tracer long name */
(PID.TID 0000.0001)               ''
(PID.TID 0000.0001)     ;
(PID.TID 0000.0001) PTRACERS_ioLabel = /* tracer IO Label */
(PID.TID 0000.0001)               '43'
(PID.TID 0000.0001)     ;
(PID.TID 0000.0001) PTRACERS_advScheme = /* Advection Scheme */
(PID.TID 0000.0001)                      33
(PID.TID 0000.0001)     ;
(PID.TID 0000.0001) PTRACERS_SOM_Advection = /* tracer uses SOM advection scheme */
(PID.TID 0000.0001)                   F
(PID.TID 0000.0001)     ;
(PID.TID 0000.0001) PTRACERS_ImplVertAdv = /* implicit vert. advection flag */
(PID.TID 0000.0001)                   F
(PID.TID 0000.0001)     ;
(PID.TID 0000.0001) PTRACERS_MultiDimAdv = /* tracer uses Multi-Dim advection */
(PID.TID 0000.0001)                   T
(PID.TID 0000.0001)     ;
(PID.TID 0000.0001) PTRACERS_AdamsBashGtr = /* apply AB on tracer tendency */
(PID.TID 0000.0001)                   F
(PID.TID 0000.0001)     ;
(PID.TID 0000.0001) PTRACERS_AdamsBash_Tr = /* apply AB on passive tracer */
(PID.TID 0000.0001)                   F
(PID.TID 0000.0001)     ;
(PID.TID 0000.0001) PTRACERS_diffKh = /* Laplacian Diffusivity */
(PID.TID 0000.0001)                 0.000000000000000E+00
(PID.TID 0000.0001)     ;
(PID.TID 0000.0001) PTRACERS_diffK4 = /* Biharmonic Diffusivity */
(PID.TID 0000.0001)                 0.000000000000000E+00
(PID.TID 0000.0001)     ;
(PID.TID 0000.0001) PTRACERS_diffKrNr = /* Vertical Diffusivity */
(PID.TID 0000.0001)    35 @  1.000000000000000E-05              /* K =  1: 35 */
(PID.TID 0000.0001)     ;
(PID.TID 0000.0001) PTRACERS_useGMRedi = /* apply GM-Redi */
(PID.TID 0000.0001)                   F
(PID.TID 0000.0001)     ;
(PID.TID 0000.0001) PTRACERS_useDWNSLP = /* apply DOWN-SLOPE Flow */
(PID.TID 0000.0001)                   F
(PID.TID 0000.0001)     ;
(PID.TID 0000.0001) PTRACERS_useKPP = /* apply KPP scheme */
(PID.TID 0000.0001)                   T
(PID.TID 0000.0001)     ;
(PID.TID 0000.0001) PTRACERS_ref = /* Reference vertical profile */
(PID.TID 0000.0001)    35 @  0.000000000000000E+00              /* K =  1: 35 */
(PID.TID 0000.0001)     ;
(PID.TID 0000.0001) PTRACERS_EvPrRn =/* tracer conc. in Evap. & Rain */
(PID.TID 0000.0001)                 1.234567000000000E+05
(PID.TID 0000.0001)     ;
(PID.TID 0000.0001)  -----------------------------------
(PID.TID 0000.0001)  tracer number :   44
(PID.TID 0000.0001) PTRACERS_names = /* Tracer short name */
(PID.TID 0000.0001)               'c25'
(PID.TID 0000.0001)     ;
(PID.TID 0000.0001) PTRACERS_long_names = /* Tracer long name */
(PID.TID 0000.0001)               ''
(PID.TID 0000.0001)     ;
(PID.TID 0000.0001) PTRACERS_ioLabel = /* tracer IO Label */
(PID.TID 0000.0001)               '44'
(PID.TID 0000.0001)     ;
(PID.TID 0000.0001) PTRACERS_advScheme = /* Advection Scheme */
(PID.TID 0000.0001)                      33
(PID.TID 0000.0001)     ;
(PID.TID 0000.0001) PTRACERS_SOM_Advection = /* tracer uses SOM advection scheme */
(PID.TID 0000.0001)                   F
(PID.TID 0000.0001)     ;
(PID.TID 0000.0001) PTRACERS_ImplVertAdv = /* implicit vert. advection flag */
(PID.TID 0000.0001)                   F
(PID.TID 0000.0001)     ;
(PID.TID 0000.0001) PTRACERS_MultiDimAdv = /* tracer uses Multi-Dim advection */
(PID.TID 0000.0001)                   T
(PID.TID 0000.0001)     ;
(PID.TID 0000.0001) PTRACERS_AdamsBashGtr = /* apply AB on tracer tendency */
(PID.TID 0000.0001)                   F
(PID.TID 0000.0001)     ;
(PID.TID 0000.0001) PTRACERS_AdamsBash_Tr = /* apply AB on passive tracer */
(PID.TID 0000.0001)                   F
(PID.TID 0000.0001)     ;
(PID.TID 0000.0001) PTRACERS_diffKh = /* Laplacian Diffusivity */
(PID.TID 0000.0001)                 0.000000000000000E+00
(PID.TID 0000.0001)     ;
(PID.TID 0000.0001) PTRACERS_diffK4 = /* Biharmonic Diffusivity */
(PID.TID 0000.0001)                 0.000000000000000E+00
(PID.TID 0000.0001)     ;
(PID.TID 0000.0001) PTRACERS_diffKrNr = /* Vertical Diffusivity */
(PID.TID 0000.0001)    35 @  1.000000000000000E-05              /* K =  1: 35 */
(PID.TID 0000.0001)     ;
(PID.TID 0000.0001) PTRACERS_useGMRedi = /* apply GM-Redi */
(PID.TID 0000.0001)                   F
(PID.TID 0000.0001)     ;
(PID.TID 0000.0001) PTRACERS_useDWNSLP = /* apply DOWN-SLOPE Flow */
(PID.TID 0000.0001)                   F
(PID.TID 0000.0001)     ;
(PID.TID 0000.0001) PTRACERS_useKPP = /* apply KPP scheme */
(PID.TID 0000.0001)                   T
(PID.TID 0000.0001)     ;
(PID.TID 0000.0001) PTRACERS_ref = /* Reference vertical profile */
(PID.TID 0000.0001)    35 @  0.000000000000000E+00              /* K =  1: 35 */
(PID.TID 0000.0001)     ;
(PID.TID 0000.0001) PTRACERS_EvPrRn =/* tracer conc. in Evap. & Rain */
(PID.TID 0000.0001)                 1.234567000000000E+05
(PID.TID 0000.0001)     ;
(PID.TID 0000.0001)  -----------------------------------
(PID.TID 0000.0001)  tracer number :   45
(PID.TID 0000.0001) PTRACERS_names = /* Tracer short name */
(PID.TID 0000.0001)               'c26'
(PID.TID 0000.0001)     ;
(PID.TID 0000.0001) PTRACERS_long_names = /* Tracer long name */
(PID.TID 0000.0001)               ''
(PID.TID 0000.0001)     ;
(PID.TID 0000.0001) PTRACERS_ioLabel = /* tracer IO Label */
(PID.TID 0000.0001)               '45'
(PID.TID 0000.0001)     ;
(PID.TID 0000.0001) PTRACERS_advScheme = /* Advection Scheme */
(PID.TID 0000.0001)                      33
(PID.TID 0000.0001)     ;
(PID.TID 0000.0001) PTRACERS_SOM_Advection = /* tracer uses SOM advection scheme */
(PID.TID 0000.0001)                   F
(PID.TID 0000.0001)     ;
(PID.TID 0000.0001) PTRACERS_ImplVertAdv = /* implicit vert. advection flag */
(PID.TID 0000.0001)                   F
(PID.TID 0000.0001)     ;
(PID.TID 0000.0001) PTRACERS_MultiDimAdv = /* tracer uses Multi-Dim advection */
(PID.TID 0000.0001)                   T
(PID.TID 0000.0001)     ;
(PID.TID 0000.0001) PTRACERS_AdamsBashGtr = /* apply AB on tracer tendency */
(PID.TID 0000.0001)                   F
(PID.TID 0000.0001)     ;
(PID.TID 0000.0001) PTRACERS_AdamsBash_Tr = /* apply AB on passive tracer */
(PID.TID 0000.0001)                   F
(PID.TID 0000.0001)     ;
(PID.TID 0000.0001) PTRACERS_diffKh = /* Laplacian Diffusivity */
(PID.TID 0000.0001)                 0.000000000000000E+00
(PID.TID 0000.0001)     ;
(PID.TID 0000.0001) PTRACERS_diffK4 = /* Biharmonic Diffusivity */
(PID.TID 0000.0001)                 0.000000000000000E+00
(PID.TID 0000.0001)     ;
(PID.TID 0000.0001) PTRACERS_diffKrNr = /* Vertical Diffusivity */
(PID.TID 0000.0001)    35 @  1.000000000000000E-05              /* K =  1: 35 */
(PID.TID 0000.0001)     ;
(PID.TID 0000.0001) PTRACERS_useGMRedi = /* apply GM-Redi */
(PID.TID 0000.0001)                   F
(PID.TID 0000.0001)     ;
(PID.TID 0000.0001) PTRACERS_useDWNSLP = /* apply DOWN-SLOPE Flow */
(PID.TID 0000.0001)                   F
(PID.TID 0000.0001)     ;
(PID.TID 0000.0001) PTRACERS_useKPP = /* apply KPP scheme */
(PID.TID 0000.0001)                   T
(PID.TID 0000.0001)     ;
(PID.TID 0000.0001) PTRACERS_ref = /* Reference vertical profile */
(PID.TID 0000.0001)    35 @  0.000000000000000E+00              /* K =  1: 35 */
(PID.TID 0000.0001)     ;
(PID.TID 0000.0001) PTRACERS_EvPrRn =/* tracer conc. in Evap. & Rain */
(PID.TID 0000.0001)                 1.234567000000000E+05
(PID.TID 0000.0001)     ;
(PID.TID 0000.0001)  -----------------------------------
(PID.TID 0000.0001)  tracer number :   46
(PID.TID 0000.0001) PTRACERS_names = /* Tracer short name */
(PID.TID 0000.0001)               'c27'
(PID.TID 0000.0001)     ;
(PID.TID 0000.0001) PTRACERS_long_names = /* Tracer long name */
(PID.TID 0000.0001)               ''
(PID.TID 0000.0001)     ;
(PID.TID 0000.0001) PTRACERS_ioLabel = /* tracer IO Label */
(PID.TID 0000.0001)               '46'
(PID.TID 0000.0001)     ;
(PID.TID 0000.0001) PTRACERS_advScheme = /* Advection Scheme */
(PID.TID 0000.0001)                      33
(PID.TID 0000.0001)     ;
(PID.TID 0000.0001) PTRACERS_SOM_Advection = /* tracer uses SOM advection scheme */
(PID.TID 0000.0001)                   F
(PID.TID 0000.0001)     ;
(PID.TID 0000.0001) PTRACERS_ImplVertAdv = /* implicit vert. advection flag */
(PID.TID 0000.0001)                   F
(PID.TID 0000.0001)     ;
(PID.TID 0000.0001) PTRACERS_MultiDimAdv = /* tracer uses Multi-Dim advection */
(PID.TID 0000.0001)                   T
(PID.TID 0000.0001)     ;
(PID.TID 0000.0001) PTRACERS_AdamsBashGtr = /* apply AB on tracer tendency */
(PID.TID 0000.0001)                   F
(PID.TID 0000.0001)     ;
(PID.TID 0000.0001) PTRACERS_AdamsBash_Tr = /* apply AB on passive tracer */
(PID.TID 0000.0001)                   F
(PID.TID 0000.0001)     ;
(PID.TID 0000.0001) PTRACERS_diffKh = /* Laplacian Diffusivity */
(PID.TID 0000.0001)                 0.000000000000000E+00
(PID.TID 0000.0001)     ;
(PID.TID 0000.0001) PTRACERS_diffK4 = /* Biharmonic Diffusivity */
(PID.TID 0000.0001)                 0.000000000000000E+00
(PID.TID 0000.0001)     ;
(PID.TID 0000.0001) PTRACERS_diffKrNr = /* Vertical Diffusivity */
(PID.TID 0000.0001)    35 @  1.000000000000000E-05              /* K =  1: 35 */
(PID.TID 0000.0001)     ;
(PID.TID 0000.0001) PTRACERS_useGMRedi = /* apply GM-Redi */
(PID.TID 0000.0001)                   F
(PID.TID 0000.0001)     ;
(PID.TID 0000.0001) PTRACERS_useDWNSLP = /* apply DOWN-SLOPE Flow */
(PID.TID 0000.0001)                   F
(PID.TID 0000.0001)     ;
(PID.TID 0000.0001) PTRACERS_useKPP = /* apply KPP scheme */
(PID.TID 0000.0001)                   T
(PID.TID 0000.0001)     ;
(PID.TID 0000.0001) PTRACERS_ref = /* Reference vertical profile */
(PID.TID 0000.0001)    35 @  0.000000000000000E+00              /* K =  1: 35 */
(PID.TID 0000.0001)     ;
(PID.TID 0000.0001) PTRACERS_EvPrRn =/* tracer conc. in Evap. & Rain */
(PID.TID 0000.0001)                 1.234567000000000E+05
(PID.TID 0000.0001)     ;
(PID.TID 0000.0001)  -----------------------------------
(PID.TID 0000.0001)  tracer number :   47
(PID.TID 0000.0001) PTRACERS_names = /* Tracer short name */
(PID.TID 0000.0001)               'c28'
(PID.TID 0000.0001)     ;
(PID.TID 0000.0001) PTRACERS_long_names = /* Tracer long name */
(PID.TID 0000.0001)               ''
(PID.TID 0000.0001)     ;
(PID.TID 0000.0001) PTRACERS_ioLabel = /* tracer IO Label */
(PID.TID 0000.0001)               '47'
(PID.TID 0000.0001)     ;
(PID.TID 0000.0001) PTRACERS_advScheme = /* Advection Scheme */
(PID.TID 0000.0001)                      33
(PID.TID 0000.0001)     ;
(PID.TID 0000.0001) PTRACERS_SOM_Advection = /* tracer uses SOM advection scheme */
(PID.TID 0000.0001)                   F
(PID.TID 0000.0001)     ;
(PID.TID 0000.0001) PTRACERS_ImplVertAdv = /* implicit vert. advection flag */
(PID.TID 0000.0001)                   F
(PID.TID 0000.0001)     ;
(PID.TID 0000.0001) PTRACERS_MultiDimAdv = /* tracer uses Multi-Dim advection */
(PID.TID 0000.0001)                   T
(PID.TID 0000.0001)     ;
(PID.TID 0000.0001) PTRACERS_AdamsBashGtr = /* apply AB on tracer tendency */
(PID.TID 0000.0001)                   F
(PID.TID 0000.0001)     ;
(PID.TID 0000.0001) PTRACERS_AdamsBash_Tr = /* apply AB on passive tracer */
(PID.TID 0000.0001)                   F
(PID.TID 0000.0001)     ;
(PID.TID 0000.0001) PTRACERS_diffKh = /* Laplacian Diffusivity */
(PID.TID 0000.0001)                 0.000000000000000E+00
(PID.TID 0000.0001)     ;
(PID.TID 0000.0001) PTRACERS_diffK4 = /* Biharmonic Diffusivity */
(PID.TID 0000.0001)                 0.000000000000000E+00
(PID.TID 0000.0001)     ;
(PID.TID 0000.0001) PTRACERS_diffKrNr = /* Vertical Diffusivity */
(PID.TID 0000.0001)    35 @  1.000000000000000E-05              /* K =  1: 35 */
(PID.TID 0000.0001)     ;
(PID.TID 0000.0001) PTRACERS_useGMRedi = /* apply GM-Redi */
(PID.TID 0000.0001)                   F
(PID.TID 0000.0001)     ;
(PID.TID 0000.0001) PTRACERS_useDWNSLP = /* apply DOWN-SLOPE Flow */
(PID.TID 0000.0001)                   F
(PID.TID 0000.0001)     ;
(PID.TID 0000.0001) PTRACERS_useKPP = /* apply KPP scheme */
(PID.TID 0000.0001)                   T
(PID.TID 0000.0001)     ;
(PID.TID 0000.0001) PTRACERS_ref = /* Reference vertical profile */
(PID.TID 0000.0001)    35 @  0.000000000000000E+00              /* K =  1: 35 */
(PID.TID 0000.0001)     ;
(PID.TID 0000.0001) PTRACERS_EvPrRn =/* tracer conc. in Evap. & Rain */
(PID.TID 0000.0001)                 1.234567000000000E+05
(PID.TID 0000.0001)     ;
(PID.TID 0000.0001)  -----------------------------------
(PID.TID 0000.0001)  tracer number :   48
(PID.TID 0000.0001) PTRACERS_names = /* Tracer short name */
(PID.TID 0000.0001)               'c29'
(PID.TID 0000.0001)     ;
(PID.TID 0000.0001) PTRACERS_long_names = /* Tracer long name */
(PID.TID 0000.0001)               ''
(PID.TID 0000.0001)     ;
(PID.TID 0000.0001) PTRACERS_ioLabel = /* tracer IO Label */
(PID.TID 0000.0001)               '48'
(PID.TID 0000.0001)     ;
(PID.TID 0000.0001) PTRACERS_advScheme = /* Advection Scheme */
(PID.TID 0000.0001)                      33
(PID.TID 0000.0001)     ;
(PID.TID 0000.0001) PTRACERS_SOM_Advection = /* tracer uses SOM advection scheme */
(PID.TID 0000.0001)                   F
(PID.TID 0000.0001)     ;
(PID.TID 0000.0001) PTRACERS_ImplVertAdv = /* implicit vert. advection flag */
(PID.TID 0000.0001)                   F
(PID.TID 0000.0001)     ;
(PID.TID 0000.0001) PTRACERS_MultiDimAdv = /* tracer uses Multi-Dim advection */
(PID.TID 0000.0001)                   T
(PID.TID 0000.0001)     ;
(PID.TID 0000.0001) PTRACERS_AdamsBashGtr = /* apply AB on tracer tendency */
(PID.TID 0000.0001)                   F
(PID.TID 0000.0001)     ;
(PID.TID 0000.0001) PTRACERS_AdamsBash_Tr = /* apply AB on passive tracer */
(PID.TID 0000.0001)                   F
(PID.TID 0000.0001)     ;
(PID.TID 0000.0001) PTRACERS_diffKh = /* Laplacian Diffusivity */
(PID.TID 0000.0001)                 0.000000000000000E+00
(PID.TID 0000.0001)     ;
(PID.TID 0000.0001) PTRACERS_diffK4 = /* Biharmonic Diffusivity */
(PID.TID 0000.0001)                 0.000000000000000E+00
(PID.TID 0000.0001)     ;
(PID.TID 0000.0001) PTRACERS_diffKrNr = /* Vertical Diffusivity */
(PID.TID 0000.0001)    35 @  1.000000000000000E-05              /* K =  1: 35 */
(PID.TID 0000.0001)     ;
(PID.TID 0000.0001) PTRACERS_useGMRedi = /* apply GM-Redi */
(PID.TID 0000.0001)                   F
(PID.TID 0000.0001)     ;
(PID.TID 0000.0001) PTRACERS_useDWNSLP = /* apply DOWN-SLOPE Flow */
(PID.TID 0000.0001)                   F
(PID.TID 0000.0001)     ;
(PID.TID 0000.0001) PTRACERS_useKPP = /* apply KPP scheme */
(PID.TID 0000.0001)                   T
(PID.TID 0000.0001)     ;
(PID.TID 0000.0001) PTRACERS_ref = /* Reference vertical profile */
(PID.TID 0000.0001)    35 @  0.000000000000000E+00              /* K =  1: 35 */
(PID.TID 0000.0001)     ;
(PID.TID 0000.0001) PTRACERS_EvPrRn =/* tracer conc. in Evap. & Rain */
(PID.TID 0000.0001)                 1.234567000000000E+05
(PID.TID 0000.0001)     ;
(PID.TID 0000.0001)  -----------------------------------
(PID.TID 0000.0001)  tracer number :   49
(PID.TID 0000.0001) PTRACERS_names = /* Tracer short name */
(PID.TID 0000.0001)               'c30'
(PID.TID 0000.0001)     ;
(PID.TID 0000.0001) PTRACERS_long_names = /* Tracer long name */
(PID.TID 0000.0001)               ''
(PID.TID 0000.0001)     ;
(PID.TID 0000.0001) PTRACERS_ioLabel = /* tracer IO Label */
(PID.TID 0000.0001)               '49'
(PID.TID 0000.0001)     ;
(PID.TID 0000.0001) PTRACERS_advScheme = /* Advection Scheme */
(PID.TID 0000.0001)                      33
(PID.TID 0000.0001)     ;
(PID.TID 0000.0001) PTRACERS_SOM_Advection = /* tracer uses SOM advection scheme */
(PID.TID 0000.0001)                   F
(PID.TID 0000.0001)     ;
(PID.TID 0000.0001) PTRACERS_ImplVertAdv = /* implicit vert. advection flag */
(PID.TID 0000.0001)                   F
(PID.TID 0000.0001)     ;
(PID.TID 0000.0001) PTRACERS_MultiDimAdv = /* tracer uses Multi-Dim advection */
(PID.TID 0000.0001)                   T
(PID.TID 0000.0001)     ;
(PID.TID 0000.0001) PTRACERS_AdamsBashGtr = /* apply AB on tracer tendency */
(PID.TID 0000.0001)                   F
(PID.TID 0000.0001)     ;
(PID.TID 0000.0001) PTRACERS_AdamsBash_Tr = /* apply AB on passive tracer */
(PID.TID 0000.0001)                   F
(PID.TID 0000.0001)     ;
(PID.TID 0000.0001) PTRACERS_diffKh = /* Laplacian Diffusivity */
(PID.TID 0000.0001)                 0.000000000000000E+00
(PID.TID 0000.0001)     ;
(PID.TID 0000.0001) PTRACERS_diffK4 = /* Biharmonic Diffusivity */
(PID.TID 0000.0001)                 0.000000000000000E+00
(PID.TID 0000.0001)     ;
(PID.TID 0000.0001) PTRACERS_diffKrNr = /* Vertical Diffusivity */
(PID.TID 0000.0001)    35 @  1.000000000000000E-05              /* K =  1: 35 */
(PID.TID 0000.0001)     ;
(PID.TID 0000.0001) PTRACERS_useGMRedi = /* apply GM-Redi */
(PID.TID 0000.0001)                   F
(PID.TID 0000.0001)     ;
(PID.TID 0000.0001) PTRACERS_useDWNSLP = /* apply DOWN-SLOPE Flow */
(PID.TID 0000.0001)                   F
(PID.TID 0000.0001)     ;
(PID.TID 0000.0001) PTRACERS_useKPP = /* apply KPP scheme */
(PID.TID 0000.0001)                   T
(PID.TID 0000.0001)     ;
(PID.TID 0000.0001) PTRACERS_ref = /* Reference vertical profile */
(PID.TID 0000.0001)    35 @  0.000000000000000E+00              /* K =  1: 35 */
(PID.TID 0000.0001)     ;
(PID.TID 0000.0001) PTRACERS_EvPrRn =/* tracer conc. in Evap. & Rain */
(PID.TID 0000.0001)                 1.234567000000000E+05
(PID.TID 0000.0001)     ;
(PID.TID 0000.0001)  -----------------------------------
(PID.TID 0000.0001)  tracer number :   50
(PID.TID 0000.0001) PTRACERS_names = /* Tracer short name */
(PID.TID 0000.0001)               'c31'
(PID.TID 0000.0001)     ;
(PID.TID 0000.0001) PTRACERS_long_names = /* Tracer long name */
(PID.TID 0000.0001)               ''
(PID.TID 0000.0001)     ;
(PID.TID 0000.0001) PTRACERS_ioLabel = /* tracer IO Label */
(PID.TID 0000.0001)               '50'
(PID.TID 0000.0001)     ;
(PID.TID 0000.0001) PTRACERS_advScheme = /* Advection Scheme */
(PID.TID 0000.0001)                      33
(PID.TID 0000.0001)     ;
(PID.TID 0000.0001) PTRACERS_SOM_Advection = /* tracer uses SOM advection scheme */
(PID.TID 0000.0001)                   F
(PID.TID 0000.0001)     ;
(PID.TID 0000.0001) PTRACERS_ImplVertAdv = /* implicit vert. advection flag */
(PID.TID 0000.0001)                   F
(PID.TID 0000.0001)     ;
(PID.TID 0000.0001) PTRACERS_MultiDimAdv = /* tracer uses Multi-Dim advection */
(PID.TID 0000.0001)                   T
(PID.TID 0000.0001)     ;
(PID.TID 0000.0001) PTRACERS_AdamsBashGtr = /* apply AB on tracer tendency */
(PID.TID 0000.0001)                   F
(PID.TID 0000.0001)     ;
(PID.TID 0000.0001) PTRACERS_AdamsBash_Tr = /* apply AB on passive tracer */
(PID.TID 0000.0001)                   F
(PID.TID 0000.0001)     ;
(PID.TID 0000.0001) PTRACERS_diffKh = /* Laplacian Diffusivity */
(PID.TID 0000.0001)                 0.000000000000000E+00
(PID.TID 0000.0001)     ;
(PID.TID 0000.0001) PTRACERS_diffK4 = /* Biharmonic Diffusivity */
(PID.TID 0000.0001)                 0.000000000000000E+00
(PID.TID 0000.0001)     ;
(PID.TID 0000.0001) PTRACERS_diffKrNr = /* Vertical Diffusivity */
(PID.TID 0000.0001)    35 @  1.000000000000000E-05              /* K =  1: 35 */
(PID.TID 0000.0001)     ;
(PID.TID 0000.0001) PTRACERS_useGMRedi = /* apply GM-Redi */
(PID.TID 0000.0001)                   F
(PID.TID 0000.0001)     ;
(PID.TID 0000.0001) PTRACERS_useDWNSLP = /* apply DOWN-SLOPE Flow */
(PID.TID 0000.0001)                   F
(PID.TID 0000.0001)     ;
(PID.TID 0000.0001) PTRACERS_useKPP = /* apply KPP scheme */
(PID.TID 0000.0001)                   T
(PID.TID 0000.0001)     ;
(PID.TID 0000.0001) PTRACERS_ref = /* Reference vertical profile */
(PID.TID 0000.0001)    35 @  0.000000000000000E+00              /* K =  1: 35 */
(PID.TID 0000.0001)     ;
(PID.TID 0000.0001) PTRACERS_EvPrRn =/* tracer conc. in Evap. & Rain */
(PID.TID 0000.0001)                 1.234567000000000E+05
(PID.TID 0000.0001)     ;
(PID.TID 0000.0001)  -----------------------------------
(PID.TID 0000.0001)  tracer number :   51
(PID.TID 0000.0001) PTRACERS_names = /* Tracer short name */
(PID.TID 0000.0001)               'c32'
(PID.TID 0000.0001)     ;
(PID.TID 0000.0001) PTRACERS_long_names = /* Tracer long name */
(PID.TID 0000.0001)               ''
(PID.TID 0000.0001)     ;
(PID.TID 0000.0001) PTRACERS_ioLabel = /* tracer IO Label */
(PID.TID 0000.0001)               '51'
(PID.TID 0000.0001)     ;
(PID.TID 0000.0001) PTRACERS_advScheme = /* Advection Scheme */
(PID.TID 0000.0001)                      33
(PID.TID 0000.0001)     ;
(PID.TID 0000.0001) PTRACERS_SOM_Advection = /* tracer uses SOM advection scheme */
(PID.TID 0000.0001)                   F
(PID.TID 0000.0001)     ;
(PID.TID 0000.0001) PTRACERS_ImplVertAdv = /* implicit vert. advection flag */
(PID.TID 0000.0001)                   F
(PID.TID 0000.0001)     ;
(PID.TID 0000.0001) PTRACERS_MultiDimAdv = /* tracer uses Multi-Dim advection */
(PID.TID 0000.0001)                   T
(PID.TID 0000.0001)     ;
(PID.TID 0000.0001) PTRACERS_AdamsBashGtr = /* apply AB on tracer tendency */
(PID.TID 0000.0001)                   F
(PID.TID 0000.0001)     ;
(PID.TID 0000.0001) PTRACERS_AdamsBash_Tr = /* apply AB on passive tracer */
(PID.TID 0000.0001)                   F
(PID.TID 0000.0001)     ;
(PID.TID 0000.0001) PTRACERS_diffKh = /* Laplacian Diffusivity */
(PID.TID 0000.0001)                 0.000000000000000E+00
(PID.TID 0000.0001)     ;
(PID.TID 0000.0001) PTRACERS_diffK4 = /* Biharmonic Diffusivity */
(PID.TID 0000.0001)                 0.000000000000000E+00
(PID.TID 0000.0001)     ;
(PID.TID 0000.0001) PTRACERS_diffKrNr = /* Vertical Diffusivity */
(PID.TID 0000.0001)    35 @  1.000000000000000E-05              /* K =  1: 35 */
(PID.TID 0000.0001)     ;
(PID.TID 0000.0001) PTRACERS_useGMRedi = /* apply GM-Redi */
(PID.TID 0000.0001)                   F
(PID.TID 0000.0001)     ;
(PID.TID 0000.0001) PTRACERS_useDWNSLP = /* apply DOWN-SLOPE Flow */
(PID.TID 0000.0001)                   F
(PID.TID 0000.0001)     ;
(PID.TID 0000.0001) PTRACERS_useKPP = /* apply KPP scheme */
(PID.TID 0000.0001)                   T
(PID.TID 0000.0001)     ;
(PID.TID 0000.0001) PTRACERS_ref = /* Reference vertical profile */
(PID.TID 0000.0001)    35 @  0.000000000000000E+00              /* K =  1: 35 */
(PID.TID 0000.0001)     ;
(PID.TID 0000.0001) PTRACERS_EvPrRn =/* tracer conc. in Evap. & Rain */
(PID.TID 0000.0001)                 1.234567000000000E+05
(PID.TID 0000.0001)     ;
(PID.TID 0000.0001)  -----------------------------------
(PID.TID 0000.0001)  tracer number :   52
(PID.TID 0000.0001) PTRACERS_names = /* Tracer short name */
(PID.TID 0000.0001)               'c33'
(PID.TID 0000.0001)     ;
(PID.TID 0000.0001) PTRACERS_long_names = /* Tracer long name */
(PID.TID 0000.0001)               ''
(PID.TID 0000.0001)     ;
(PID.TID 0000.0001) PTRACERS_ioLabel = /* tracer IO Label */
(PID.TID 0000.0001)               '52'
(PID.TID 0000.0001)     ;
(PID.TID 0000.0001) PTRACERS_advScheme = /* Advection Scheme */
(PID.TID 0000.0001)                      33
(PID.TID 0000.0001)     ;
(PID.TID 0000.0001) PTRACERS_SOM_Advection = /* tracer uses SOM advection scheme */
(PID.TID 0000.0001)                   F
(PID.TID 0000.0001)     ;
(PID.TID 0000.0001) PTRACERS_ImplVertAdv = /* implicit vert. advection flag */
(PID.TID 0000.0001)                   F
(PID.TID 0000.0001)     ;
(PID.TID 0000.0001) PTRACERS_MultiDimAdv = /* tracer uses Multi-Dim advection */
(PID.TID 0000.0001)                   T
(PID.TID 0000.0001)     ;
(PID.TID 0000.0001) PTRACERS_AdamsBashGtr = /* apply AB on tracer tendency */
(PID.TID 0000.0001)                   F
(PID.TID 0000.0001)     ;
(PID.TID 0000.0001) PTRACERS_AdamsBash_Tr = /* apply AB on passive tracer */
(PID.TID 0000.0001)                   F
(PID.TID 0000.0001)     ;
(PID.TID 0000.0001) PTRACERS_diffKh = /* Laplacian Diffusivity */
(PID.TID 0000.0001)                 0.000000000000000E+00
(PID.TID 0000.0001)     ;
(PID.TID 0000.0001) PTRACERS_diffK4 = /* Biharmonic Diffusivity */
(PID.TID 0000.0001)                 0.000000000000000E+00
(PID.TID 0000.0001)     ;
(PID.TID 0000.0001) PTRACERS_diffKrNr = /* Vertical Diffusivity */
(PID.TID 0000.0001)    35 @  1.000000000000000E-05              /* K =  1: 35 */
(PID.TID 0000.0001)     ;
(PID.TID 0000.0001) PTRACERS_useGMRedi = /* apply GM-Redi */
(PID.TID 0000.0001)                   F
(PID.TID 0000.0001)     ;
(PID.TID 0000.0001) PTRACERS_useDWNSLP = /* apply DOWN-SLOPE Flow */
(PID.TID 0000.0001)                   F
(PID.TID 0000.0001)     ;
(PID.TID 0000.0001) PTRACERS_useKPP = /* apply KPP scheme */
(PID.TID 0000.0001)                   T
(PID.TID 0000.0001)     ;
(PID.TID 0000.0001) PTRACERS_ref = /* Reference vertical profile */
(PID.TID 0000.0001)    35 @  0.000000000000000E+00              /* K =  1: 35 */
(PID.TID 0000.0001)     ;
(PID.TID 0000.0001) PTRACERS_EvPrRn =/* tracer conc. in Evap. & Rain */
(PID.TID 0000.0001)                 1.234567000000000E+05
(PID.TID 0000.0001)     ;
(PID.TID 0000.0001)  -----------------------------------
(PID.TID 0000.0001)  tracer number :   53
(PID.TID 0000.0001) PTRACERS_names = /* Tracer short name */
(PID.TID 0000.0001)               'c34'
(PID.TID 0000.0001)     ;
(PID.TID 0000.0001) PTRACERS_long_names = /* Tracer long name */
(PID.TID 0000.0001)               ''
(PID.TID 0000.0001)     ;
(PID.TID 0000.0001) PTRACERS_ioLabel = /* tracer IO Label */
(PID.TID 0000.0001)               '53'
(PID.TID 0000.0001)     ;
(PID.TID 0000.0001) PTRACERS_advScheme = /* Advection Scheme */
(PID.TID 0000.0001)                      33
(PID.TID 0000.0001)     ;
(PID.TID 0000.0001) PTRACERS_SOM_Advection = /* tracer uses SOM advection scheme */
(PID.TID 0000.0001)                   F
(PID.TID 0000.0001)     ;
(PID.TID 0000.0001) PTRACERS_ImplVertAdv = /* implicit vert. advection flag */
(PID.TID 0000.0001)                   F
(PID.TID 0000.0001)     ;
(PID.TID 0000.0001) PTRACERS_MultiDimAdv = /* tracer uses Multi-Dim advection */
(PID.TID 0000.0001)                   T
(PID.TID 0000.0001)     ;
(PID.TID 0000.0001) PTRACERS_AdamsBashGtr = /* apply AB on tracer tendency */
(PID.TID 0000.0001)                   F
(PID.TID 0000.0001)     ;
(PID.TID 0000.0001) PTRACERS_AdamsBash_Tr = /* apply AB on passive tracer */
(PID.TID 0000.0001)                   F
(PID.TID 0000.0001)     ;
(PID.TID 0000.0001) PTRACERS_diffKh = /* Laplacian Diffusivity */
(PID.TID 0000.0001)                 0.000000000000000E+00
(PID.TID 0000.0001)     ;
(PID.TID 0000.0001) PTRACERS_diffK4 = /* Biharmonic Diffusivity */
(PID.TID 0000.0001)                 0.000000000000000E+00
(PID.TID 0000.0001)     ;
(PID.TID 0000.0001) PTRACERS_diffKrNr = /* Vertical Diffusivity */
(PID.TID 0000.0001)    35 @  1.000000000000000E-05              /* K =  1: 35 */
(PID.TID 0000.0001)     ;
(PID.TID 0000.0001) PTRACERS_useGMRedi = /* apply GM-Redi */
(PID.TID 0000.0001)                   F
(PID.TID 0000.0001)     ;
(PID.TID 0000.0001) PTRACERS_useDWNSLP = /* apply DOWN-SLOPE Flow */
(PID.TID 0000.0001)                   F
(PID.TID 0000.0001)     ;
(PID.TID 0000.0001) PTRACERS_useKPP = /* apply KPP scheme */
(PID.TID 0000.0001)                   T
(PID.TID 0000.0001)     ;
(PID.TID 0000.0001) PTRACERS_ref = /* Reference vertical profile */
(PID.TID 0000.0001)    35 @  0.000000000000000E+00              /* K =  1: 35 */
(PID.TID 0000.0001)     ;
(PID.TID 0000.0001) PTRACERS_EvPrRn =/* tracer conc. in Evap. & Rain */
(PID.TID 0000.0001)                 1.234567000000000E+05
(PID.TID 0000.0001)     ;
(PID.TID 0000.0001)  -----------------------------------
(PID.TID 0000.0001)  tracer number :   54
(PID.TID 0000.0001) PTRACERS_names = /* Tracer short name */
(PID.TID 0000.0001)               'c35'
(PID.TID 0000.0001)     ;
(PID.TID 0000.0001) PTRACERS_long_names = /* Tracer long name */
(PID.TID 0000.0001)               ''
(PID.TID 0000.0001)     ;
(PID.TID 0000.0001) PTRACERS_ioLabel = /* tracer IO Label */
(PID.TID 0000.0001)               '54'
(PID.TID 0000.0001)     ;
(PID.TID 0000.0001) PTRACERS_advScheme = /* Advection Scheme */
(PID.TID 0000.0001)                      33
(PID.TID 0000.0001)     ;
(PID.TID 0000.0001) PTRACERS_SOM_Advection = /* tracer uses SOM advection scheme */
(PID.TID 0000.0001)                   F
(PID.TID 0000.0001)     ;
(PID.TID 0000.0001) PTRACERS_ImplVertAdv = /* implicit vert. advection flag */
(PID.TID 0000.0001)                   F
(PID.TID 0000.0001)     ;
(PID.TID 0000.0001) PTRACERS_MultiDimAdv = /* tracer uses Multi-Dim advection */
(PID.TID 0000.0001)                   T
(PID.TID 0000.0001)     ;
(PID.TID 0000.0001) PTRACERS_AdamsBashGtr = /* apply AB on tracer tendency */
(PID.TID 0000.0001)                   F
(PID.TID 0000.0001)     ;
(PID.TID 0000.0001) PTRACERS_AdamsBash_Tr = /* apply AB on passive tracer */
(PID.TID 0000.0001)                   F
(PID.TID 0000.0001)     ;
(PID.TID 0000.0001) PTRACERS_diffKh = /* Laplacian Diffusivity */
(PID.TID 0000.0001)                 0.000000000000000E+00
(PID.TID 0000.0001)     ;
(PID.TID 0000.0001) PTRACERS_diffK4 = /* Biharmonic Diffusivity */
(PID.TID 0000.0001)                 0.000000000000000E+00
(PID.TID 0000.0001)     ;
(PID.TID 0000.0001) PTRACERS_diffKrNr = /* Vertical Diffusivity */
(PID.TID 0000.0001)    35 @  1.000000000000000E-05              /* K =  1: 35 */
(PID.TID 0000.0001)     ;
(PID.TID 0000.0001) PTRACERS_useGMRedi = /* apply GM-Redi */
(PID.TID 0000.0001)                   F
(PID.TID 0000.0001)     ;
(PID.TID 0000.0001) PTRACERS_useDWNSLP = /* apply DOWN-SLOPE Flow */
(PID.TID 0000.0001)                   F
(PID.TID 0000.0001)     ;
(PID.TID 0000.0001) PTRACERS_useKPP = /* apply KPP scheme */
(PID.TID 0000.0001)                   T
(PID.TID 0000.0001)     ;
(PID.TID 0000.0001) PTRACERS_ref = /* Reference vertical profile */
(PID.TID 0000.0001)    35 @  0.000000000000000E+00              /* K =  1: 35 */
(PID.TID 0000.0001)     ;
(PID.TID 0000.0001) PTRACERS_EvPrRn =/* tracer conc. in Evap. & Rain */
(PID.TID 0000.0001)                 1.234567000000000E+05
(PID.TID 0000.0001)     ;
(PID.TID 0000.0001)  -----------------------------------
(PID.TID 0000.0001)  tracer number :   55
(PID.TID 0000.0001) PTRACERS_names = /* Tracer short name */
(PID.TID 0000.0001)               'c36'
(PID.TID 0000.0001)     ;
(PID.TID 0000.0001) PTRACERS_long_names = /* Tracer long name */
(PID.TID 0000.0001)               ''
(PID.TID 0000.0001)     ;
(PID.TID 0000.0001) PTRACERS_ioLabel = /* tracer IO Label */
(PID.TID 0000.0001)               '55'
(PID.TID 0000.0001)     ;
(PID.TID 0000.0001) PTRACERS_advScheme = /* Advection Scheme */
(PID.TID 0000.0001)                      33
(PID.TID 0000.0001)     ;
(PID.TID 0000.0001) PTRACERS_SOM_Advection = /* tracer uses SOM advection scheme */
(PID.TID 0000.0001)                   F
(PID.TID 0000.0001)     ;
(PID.TID 0000.0001) PTRACERS_ImplVertAdv = /* implicit vert. advection flag */
(PID.TID 0000.0001)                   F
(PID.TID 0000.0001)     ;
(PID.TID 0000.0001) PTRACERS_MultiDimAdv = /* tracer uses Multi-Dim advection */
(PID.TID 0000.0001)                   T
(PID.TID 0000.0001)     ;
(PID.TID 0000.0001) PTRACERS_AdamsBashGtr = /* apply AB on tracer tendency */
(PID.TID 0000.0001)                   F
(PID.TID 0000.0001)     ;
(PID.TID 0000.0001) PTRACERS_AdamsBash_Tr = /* apply AB on passive tracer */
(PID.TID 0000.0001)                   F
(PID.TID 0000.0001)     ;
(PID.TID 0000.0001) PTRACERS_diffKh = /* Laplacian Diffusivity */
(PID.TID 0000.0001)                 0.000000000000000E+00
(PID.TID 0000.0001)     ;
(PID.TID 0000.0001) PTRACERS_diffK4 = /* Biharmonic Diffusivity */
(PID.TID 0000.0001)                 0.000000000000000E+00
(PID.TID 0000.0001)     ;
(PID.TID 0000.0001) PTRACERS_diffKrNr = /* Vertical Diffusivity */
(PID.TID 0000.0001)    35 @  1.000000000000000E-05              /* K =  1: 35 */
(PID.TID 0000.0001)     ;
(PID.TID 0000.0001) PTRACERS_useGMRedi = /* apply GM-Redi */
(PID.TID 0000.0001)                   F
(PID.TID 0000.0001)     ;
(PID.TID 0000.0001) PTRACERS_useDWNSLP = /* apply DOWN-SLOPE Flow */
(PID.TID 0000.0001)                   F
(PID.TID 0000.0001)     ;
(PID.TID 0000.0001) PTRACERS_useKPP = /* apply KPP scheme */
(PID.TID 0000.0001)                   T
(PID.TID 0000.0001)     ;
(PID.TID 0000.0001) PTRACERS_ref = /* Reference vertical profile */
(PID.TID 0000.0001)    35 @  0.000000000000000E+00              /* K =  1: 35 */
(PID.TID 0000.0001)     ;
(PID.TID 0000.0001) PTRACERS_EvPrRn =/* tracer conc. in Evap. & Rain */
(PID.TID 0000.0001)                 1.234567000000000E+05
(PID.TID 0000.0001)     ;
(PID.TID 0000.0001)  -----------------------------------
(PID.TID 0000.0001)  tracer number :   56
(PID.TID 0000.0001) PTRACERS_names = /* Tracer short name */
(PID.TID 0000.0001)               'c37'
(PID.TID 0000.0001)     ;
(PID.TID 0000.0001) PTRACERS_long_names = /* Tracer long name */
(PID.TID 0000.0001)               ''
(PID.TID 0000.0001)     ;
(PID.TID 0000.0001) PTRACERS_ioLabel = /* tracer IO Label */
(PID.TID 0000.0001)               '56'
(PID.TID 0000.0001)     ;
(PID.TID 0000.0001) PTRACERS_advScheme = /* Advection Scheme */
(PID.TID 0000.0001)                      33
(PID.TID 0000.0001)     ;
(PID.TID 0000.0001) PTRACERS_SOM_Advection = /* tracer uses SOM advection scheme */
(PID.TID 0000.0001)                   F
(PID.TID 0000.0001)     ;
(PID.TID 0000.0001) PTRACERS_ImplVertAdv = /* implicit vert. advection flag */
(PID.TID 0000.0001)                   F
(PID.TID 0000.0001)     ;
(PID.TID 0000.0001) PTRACERS_MultiDimAdv = /* tracer uses Multi-Dim advection */
(PID.TID 0000.0001)                   T
(PID.TID 0000.0001)     ;
(PID.TID 0000.0001) PTRACERS_AdamsBashGtr = /* apply AB on tracer tendency */
(PID.TID 0000.0001)                   F
(PID.TID 0000.0001)     ;
(PID.TID 0000.0001) PTRACERS_AdamsBash_Tr = /* apply AB on passive tracer */
(PID.TID 0000.0001)                   F
(PID.TID 0000.0001)     ;
(PID.TID 0000.0001) PTRACERS_diffKh = /* Laplacian Diffusivity */
(PID.TID 0000.0001)                 0.000000000000000E+00
(PID.TID 0000.0001)     ;
(PID.TID 0000.0001) PTRACERS_diffK4 = /* Biharmonic Diffusivity */
(PID.TID 0000.0001)                 0.000000000000000E+00
(PID.TID 0000.0001)     ;
(PID.TID 0000.0001) PTRACERS_diffKrNr = /* Vertical Diffusivity */
(PID.TID 0000.0001)    35 @  1.000000000000000E-05              /* K =  1: 35 */
(PID.TID 0000.0001)     ;
(PID.TID 0000.0001) PTRACERS_useGMRedi = /* apply GM-Redi */
(PID.TID 0000.0001)                   F
(PID.TID 0000.0001)     ;
(PID.TID 0000.0001) PTRACERS_useDWNSLP = /* apply DOWN-SLOPE Flow */
(PID.TID 0000.0001)                   F
(PID.TID 0000.0001)     ;
(PID.TID 0000.0001) PTRACERS_useKPP = /* apply KPP scheme */
(PID.TID 0000.0001)                   T
(PID.TID 0000.0001)     ;
(PID.TID 0000.0001) PTRACERS_ref = /* Reference vertical profile */
(PID.TID 0000.0001)    35 @  0.000000000000000E+00              /* K =  1: 35 */
(PID.TID 0000.0001)     ;
(PID.TID 0000.0001) PTRACERS_EvPrRn =/* tracer conc. in Evap. & Rain */
(PID.TID 0000.0001)                 1.234567000000000E+05
(PID.TID 0000.0001)     ;
(PID.TID 0000.0001)  -----------------------------------
(PID.TID 0000.0001)  tracer number :   57
(PID.TID 0000.0001) PTRACERS_names = /* Tracer short name */
(PID.TID 0000.0001)               'c38'
(PID.TID 0000.0001)     ;
(PID.TID 0000.0001) PTRACERS_long_names = /* Tracer long name */
(PID.TID 0000.0001)               ''
(PID.TID 0000.0001)     ;
(PID.TID 0000.0001) PTRACERS_ioLabel = /* tracer IO Label */
(PID.TID 0000.0001)               '57'
(PID.TID 0000.0001)     ;
(PID.TID 0000.0001) PTRACERS_advScheme = /* Advection Scheme */
(PID.TID 0000.0001)                      33
(PID.TID 0000.0001)     ;
(PID.TID 0000.0001) PTRACERS_SOM_Advection = /* tracer uses SOM advection scheme */
(PID.TID 0000.0001)                   F
(PID.TID 0000.0001)     ;
(PID.TID 0000.0001) PTRACERS_ImplVertAdv = /* implicit vert. advection flag */
(PID.TID 0000.0001)                   F
(PID.TID 0000.0001)     ;
(PID.TID 0000.0001) PTRACERS_MultiDimAdv = /* tracer uses Multi-Dim advection */
(PID.TID 0000.0001)                   T
(PID.TID 0000.0001)     ;
(PID.TID 0000.0001) PTRACERS_AdamsBashGtr = /* apply AB on tracer tendency */
(PID.TID 0000.0001)                   F
(PID.TID 0000.0001)     ;
(PID.TID 0000.0001) PTRACERS_AdamsBash_Tr = /* apply AB on passive tracer */
(PID.TID 0000.0001)                   F
(PID.TID 0000.0001)     ;
(PID.TID 0000.0001) PTRACERS_diffKh = /* Laplacian Diffusivity */
(PID.TID 0000.0001)                 0.000000000000000E+00
(PID.TID 0000.0001)     ;
(PID.TID 0000.0001) PTRACERS_diffK4 = /* Biharmonic Diffusivity */
(PID.TID 0000.0001)                 0.000000000000000E+00
(PID.TID 0000.0001)     ;
(PID.TID 0000.0001) PTRACERS_diffKrNr = /* Vertical Diffusivity */
(PID.TID 0000.0001)    35 @  1.000000000000000E-05              /* K =  1: 35 */
(PID.TID 0000.0001)     ;
(PID.TID 0000.0001) PTRACERS_useGMRedi = /* apply GM-Redi */
(PID.TID 0000.0001)                   F
(PID.TID 0000.0001)     ;
(PID.TID 0000.0001) PTRACERS_useDWNSLP = /* apply DOWN-SLOPE Flow */
(PID.TID 0000.0001)                   F
(PID.TID 0000.0001)     ;
(PID.TID 0000.0001) PTRACERS_useKPP = /* apply KPP scheme */
(PID.TID 0000.0001)                   T
(PID.TID 0000.0001)     ;
(PID.TID 0000.0001) PTRACERS_ref = /* Reference vertical profile */
(PID.TID 0000.0001)    35 @  0.000000000000000E+00              /* K =  1: 35 */
(PID.TID 0000.0001)     ;
(PID.TID 0000.0001) PTRACERS_EvPrRn =/* tracer conc. in Evap. & Rain */
(PID.TID 0000.0001)                 1.234567000000000E+05
(PID.TID 0000.0001)     ;
(PID.TID 0000.0001)  -----------------------------------
(PID.TID 0000.0001)  tracer number :   58
(PID.TID 0000.0001) PTRACERS_names = /* Tracer short name */
(PID.TID 0000.0001)               'n01'
(PID.TID 0000.0001)     ;
(PID.TID 0000.0001) PTRACERS_long_names = /* Tracer long name */
(PID.TID 0000.0001)               ''
(PID.TID 0000.0001)     ;
(PID.TID 0000.0001) PTRACERS_ioLabel = /* tracer IO Label */
(PID.TID 0000.0001)               '58'
(PID.TID 0000.0001)     ;
(PID.TID 0000.0001) PTRACERS_advScheme = /* Advection Scheme */
(PID.TID 0000.0001)                      33
(PID.TID 0000.0001)     ;
(PID.TID 0000.0001) PTRACERS_SOM_Advection = /* tracer uses SOM advection scheme */
(PID.TID 0000.0001)                   F
(PID.TID 0000.0001)     ;
(PID.TID 0000.0001) PTRACERS_ImplVertAdv = /* implicit vert. advection flag */
(PID.TID 0000.0001)                   F
(PID.TID 0000.0001)     ;
(PID.TID 0000.0001) PTRACERS_MultiDimAdv = /* tracer uses Multi-Dim advection */
(PID.TID 0000.0001)                   T
(PID.TID 0000.0001)     ;
(PID.TID 0000.0001) PTRACERS_AdamsBashGtr = /* apply AB on tracer tendency */
(PID.TID 0000.0001)                   F
(PID.TID 0000.0001)     ;
(PID.TID 0000.0001) PTRACERS_AdamsBash_Tr = /* apply AB on passive tracer */
(PID.TID 0000.0001)                   F
(PID.TID 0000.0001)     ;
(PID.TID 0000.0001) PTRACERS_diffKh = /* Laplacian Diffusivity */
(PID.TID 0000.0001)                 0.000000000000000E+00
(PID.TID 0000.0001)     ;
(PID.TID 0000.0001) PTRACERS_diffK4 = /* Biharmonic Diffusivity */
(PID.TID 0000.0001)                 0.000000000000000E+00
(PID.TID 0000.0001)     ;
(PID.TID 0000.0001) PTRACERS_diffKrNr = /* Vertical Diffusivity */
(PID.TID 0000.0001)    35 @  1.000000000000000E-05              /* K =  1: 35 */
(PID.TID 0000.0001)     ;
(PID.TID 0000.0001) PTRACERS_useGMRedi = /* apply GM-Redi */
(PID.TID 0000.0001)                   F
(PID.TID 0000.0001)     ;
(PID.TID 0000.0001) PTRACERS_useDWNSLP = /* apply DOWN-SLOPE Flow */
(PID.TID 0000.0001)                   F
(PID.TID 0000.0001)     ;
(PID.TID 0000.0001) PTRACERS_useKPP = /* apply KPP scheme */
(PID.TID 0000.0001)                   T
(PID.TID 0000.0001)     ;
(PID.TID 0000.0001) PTRACERS_ref = /* Reference vertical profile */
(PID.TID 0000.0001)    35 @  0.000000000000000E+00              /* K =  1: 35 */
(PID.TID 0000.0001)     ;
(PID.TID 0000.0001) PTRACERS_EvPrRn =/* tracer conc. in Evap. & Rain */
(PID.TID 0000.0001)                 1.234567000000000E+05
(PID.TID 0000.0001)     ;
(PID.TID 0000.0001)  -----------------------------------
(PID.TID 0000.0001)  tracer number :   59
(PID.TID 0000.0001) PTRACERS_names = /* Tracer short name */
(PID.TID 0000.0001)               'n02'
(PID.TID 0000.0001)     ;
(PID.TID 0000.0001) PTRACERS_long_names = /* Tracer long name */
(PID.TID 0000.0001)               ''
(PID.TID 0000.0001)     ;
(PID.TID 0000.0001) PTRACERS_ioLabel = /* tracer IO Label */
(PID.TID 0000.0001)               '59'
(PID.TID 0000.0001)     ;
(PID.TID 0000.0001) PTRACERS_advScheme = /* Advection Scheme */
(PID.TID 0000.0001)                      33
(PID.TID 0000.0001)     ;
(PID.TID 0000.0001) PTRACERS_SOM_Advection = /* tracer uses SOM advection scheme */
(PID.TID 0000.0001)                   F
(PID.TID 0000.0001)     ;
(PID.TID 0000.0001) PTRACERS_ImplVertAdv = /* implicit vert. advection flag */
(PID.TID 0000.0001)                   F
(PID.TID 0000.0001)     ;
(PID.TID 0000.0001) PTRACERS_MultiDimAdv = /* tracer uses Multi-Dim advection */
(PID.TID 0000.0001)                   T
(PID.TID 0000.0001)     ;
(PID.TID 0000.0001) PTRACERS_AdamsBashGtr = /* apply AB on tracer tendency */
(PID.TID 0000.0001)                   F
(PID.TID 0000.0001)     ;
(PID.TID 0000.0001) PTRACERS_AdamsBash_Tr = /* apply AB on passive tracer */
(PID.TID 0000.0001)                   F
(PID.TID 0000.0001)     ;
(PID.TID 0000.0001) PTRACERS_diffKh = /* Laplacian Diffusivity */
(PID.TID 0000.0001)                 0.000000000000000E+00
(PID.TID 0000.0001)     ;
(PID.TID 0000.0001) PTRACERS_diffK4 = /* Biharmonic Diffusivity */
(PID.TID 0000.0001)                 0.000000000000000E+00
(PID.TID 0000.0001)     ;
(PID.TID 0000.0001) PTRACERS_diffKrNr = /* Vertical Diffusivity */
(PID.TID 0000.0001)    35 @  1.000000000000000E-05              /* K =  1: 35 */
(PID.TID 0000.0001)     ;
(PID.TID 0000.0001) PTRACERS_useGMRedi = /* apply GM-Redi */
(PID.TID 0000.0001)                   F
(PID.TID 0000.0001)     ;
(PID.TID 0000.0001) PTRACERS_useDWNSLP = /* apply DOWN-SLOPE Flow */
(PID.TID 0000.0001)                   F
(PID.TID 0000.0001)     ;
(PID.TID 0000.0001) PTRACERS_useKPP = /* apply KPP scheme */
(PID.TID 0000.0001)                   T
(PID.TID 0000.0001)     ;
(PID.TID 0000.0001) PTRACERS_ref = /* Reference vertical profile */
(PID.TID 0000.0001)    35 @  0.000000000000000E+00              /* K =  1: 35 */
(PID.TID 0000.0001)     ;
(PID.TID 0000.0001) PTRACERS_EvPrRn =/* tracer conc. in Evap. & Rain */
(PID.TID 0000.0001)                 1.234567000000000E+05
(PID.TID 0000.0001)     ;
(PID.TID 0000.0001)  -----------------------------------
(PID.TID 0000.0001)  tracer number :   60
(PID.TID 0000.0001) PTRACERS_names = /* Tracer short name */
(PID.TID 0000.0001)               'n03'
(PID.TID 0000.0001)     ;
(PID.TID 0000.0001) PTRACERS_long_names = /* Tracer long name */
(PID.TID 0000.0001)               ''
(PID.TID 0000.0001)     ;
(PID.TID 0000.0001) PTRACERS_ioLabel = /* tracer IO Label */
(PID.TID 0000.0001)               '60'
(PID.TID 0000.0001)     ;
(PID.TID 0000.0001) PTRACERS_advScheme = /* Advection Scheme */
(PID.TID 0000.0001)                      33
(PID.TID 0000.0001)     ;
(PID.TID 0000.0001) PTRACERS_SOM_Advection = /* tracer uses SOM advection scheme */
(PID.TID 0000.0001)                   F
(PID.TID 0000.0001)     ;
(PID.TID 0000.0001) PTRACERS_ImplVertAdv = /* implicit vert. advection flag */
(PID.TID 0000.0001)                   F
(PID.TID 0000.0001)     ;
(PID.TID 0000.0001) PTRACERS_MultiDimAdv = /* tracer uses Multi-Dim advection */
(PID.TID 0000.0001)                   T
(PID.TID 0000.0001)     ;
(PID.TID 0000.0001) PTRACERS_AdamsBashGtr = /* apply AB on tracer tendency */
(PID.TID 0000.0001)                   F
(PID.TID 0000.0001)     ;
(PID.TID 0000.0001) PTRACERS_AdamsBash_Tr = /* apply AB on passive tracer */
(PID.TID 0000.0001)                   F
(PID.TID 0000.0001)     ;
(PID.TID 0000.0001) PTRACERS_diffKh = /* Laplacian Diffusivity */
(PID.TID 0000.0001)                 0.000000000000000E+00
(PID.TID 0000.0001)     ;
(PID.TID 0000.0001) PTRACERS_diffK4 = /* Biharmonic Diffusivity */
(PID.TID 0000.0001)                 0.000000000000000E+00
(PID.TID 0000.0001)     ;
(PID.TID 0000.0001) PTRACERS_diffKrNr = /* Vertical Diffusivity */
(PID.TID 0000.0001)    35 @  1.000000000000000E-05              /* K =  1: 35 */
(PID.TID 0000.0001)     ;
(PID.TID 0000.0001) PTRACERS_useGMRedi = /* apply GM-Redi */
(PID.TID 0000.0001)                   F
(PID.TID 0000.0001)     ;
(PID.TID 0000.0001) PTRACERS_useDWNSLP = /* apply DOWN-SLOPE Flow */
(PID.TID 0000.0001)                   F
(PID.TID 0000.0001)     ;
(PID.TID 0000.0001) PTRACERS_useKPP = /* apply KPP scheme */
(PID.TID 0000.0001)                   T
(PID.TID 0000.0001)     ;
(PID.TID 0000.0001) PTRACERS_ref = /* Reference vertical profile */
(PID.TID 0000.0001)    35 @  0.000000000000000E+00              /* K =  1: 35 */
(PID.TID 0000.0001)     ;
(PID.TID 0000.0001) PTRACERS_EvPrRn =/* tracer conc. in Evap. & Rain */
(PID.TID 0000.0001)                 1.234567000000000E+05
(PID.TID 0000.0001)     ;
(PID.TID 0000.0001)  -----------------------------------
(PID.TID 0000.0001)  tracer number :   61
(PID.TID 0000.0001) PTRACERS_names = /* Tracer short name */
(PID.TID 0000.0001)               'n04'
(PID.TID 0000.0001)     ;
(PID.TID 0000.0001) PTRACERS_long_names = /* Tracer long name */
(PID.TID 0000.0001)               ''
(PID.TID 0000.0001)     ;
(PID.TID 0000.0001) PTRACERS_ioLabel = /* tracer IO Label */
(PID.TID 0000.0001)               '61'
(PID.TID 0000.0001)     ;
(PID.TID 0000.0001) PTRACERS_advScheme = /* Advection Scheme */
(PID.TID 0000.0001)                      33
(PID.TID 0000.0001)     ;
(PID.TID 0000.0001) PTRACERS_SOM_Advection = /* tracer uses SOM advection scheme */
(PID.TID 0000.0001)                   F
(PID.TID 0000.0001)     ;
(PID.TID 0000.0001) PTRACERS_ImplVertAdv = /* implicit vert. advection flag */
(PID.TID 0000.0001)                   F
(PID.TID 0000.0001)     ;
(PID.TID 0000.0001) PTRACERS_MultiDimAdv = /* tracer uses Multi-Dim advection */
(PID.TID 0000.0001)                   T
(PID.TID 0000.0001)     ;
(PID.TID 0000.0001) PTRACERS_AdamsBashGtr = /* apply AB on tracer tendency */
(PID.TID 0000.0001)                   F
(PID.TID 0000.0001)     ;
(PID.TID 0000.0001) PTRACERS_AdamsBash_Tr = /* apply AB on passive tracer */
(PID.TID 0000.0001)                   F
(PID.TID 0000.0001)     ;
(PID.TID 0000.0001) PTRACERS_diffKh = /* Laplacian Diffusivity */
(PID.TID 0000.0001)                 0.000000000000000E+00
(PID.TID 0000.0001)     ;
(PID.TID 0000.0001) PTRACERS_diffK4 = /* Biharmonic Diffusivity */
(PID.TID 0000.0001)                 0.000000000000000E+00
(PID.TID 0000.0001)     ;
(PID.TID 0000.0001) PTRACERS_diffKrNr = /* Vertical Diffusivity */
(PID.TID 0000.0001)    35 @  1.000000000000000E-05              /* K =  1: 35 */
(PID.TID 0000.0001)     ;
(PID.TID 0000.0001) PTRACERS_useGMRedi = /* apply GM-Redi */
(PID.TID 0000.0001)                   F
(PID.TID 0000.0001)     ;
(PID.TID 0000.0001) PTRACERS_useDWNSLP = /* apply DOWN-SLOPE Flow */
(PID.TID 0000.0001)                   F
(PID.TID 0000.0001)     ;
(PID.TID 0000.0001) PTRACERS_useKPP = /* apply KPP scheme */
(PID.TID 0000.0001)                   T
(PID.TID 0000.0001)     ;
(PID.TID 0000.0001) PTRACERS_ref = /* Reference vertical profile */
(PID.TID 0000.0001)    35 @  0.000000000000000E+00              /* K =  1: 35 */
(PID.TID 0000.0001)     ;
(PID.TID 0000.0001) PTRACERS_EvPrRn =/* tracer conc. in Evap. & Rain */
(PID.TID 0000.0001)                 1.234567000000000E+05
(PID.TID 0000.0001)     ;
(PID.TID 0000.0001)  -----------------------------------
(PID.TID 0000.0001)  tracer number :   62
(PID.TID 0000.0001) PTRACERS_names = /* Tracer short name */
(PID.TID 0000.0001)               'n05'
(PID.TID 0000.0001)     ;
(PID.TID 0000.0001) PTRACERS_long_names = /* Tracer long name */
(PID.TID 0000.0001)               ''
(PID.TID 0000.0001)     ;
(PID.TID 0000.0001) PTRACERS_ioLabel = /* tracer IO Label */
(PID.TID 0000.0001)               '62'
(PID.TID 0000.0001)     ;
(PID.TID 0000.0001) PTRACERS_advScheme = /* Advection Scheme */
(PID.TID 0000.0001)                      33
(PID.TID 0000.0001)     ;
(PID.TID 0000.0001) PTRACERS_SOM_Advection = /* tracer uses SOM advection scheme */
(PID.TID 0000.0001)                   F
(PID.TID 0000.0001)     ;
(PID.TID 0000.0001) PTRACERS_ImplVertAdv = /* implicit vert. advection flag */
(PID.TID 0000.0001)                   F
(PID.TID 0000.0001)     ;
(PID.TID 0000.0001) PTRACERS_MultiDimAdv = /* tracer uses Multi-Dim advection */
(PID.TID 0000.0001)                   T
(PID.TID 0000.0001)     ;
(PID.TID 0000.0001) PTRACERS_AdamsBashGtr = /* apply AB on tracer tendency */
(PID.TID 0000.0001)                   F
(PID.TID 0000.0001)     ;
(PID.TID 0000.0001) PTRACERS_AdamsBash_Tr = /* apply AB on passive tracer */
(PID.TID 0000.0001)                   F
(PID.TID 0000.0001)     ;
(PID.TID 0000.0001) PTRACERS_diffKh = /* Laplacian Diffusivity */
(PID.TID 0000.0001)                 0.000000000000000E+00
(PID.TID 0000.0001)     ;
(PID.TID 0000.0001) PTRACERS_diffK4 = /* Biharmonic Diffusivity */
(PID.TID 0000.0001)                 0.000000000000000E+00
(PID.TID 0000.0001)     ;
(PID.TID 0000.0001) PTRACERS_diffKrNr = /* Vertical Diffusivity */
(PID.TID 0000.0001)    35 @  1.000000000000000E-05              /* K =  1: 35 */
(PID.TID 0000.0001)     ;
(PID.TID 0000.0001) PTRACERS_useGMRedi = /* apply GM-Redi */
(PID.TID 0000.0001)                   F
(PID.TID 0000.0001)     ;
(PID.TID 0000.0001) PTRACERS_useDWNSLP = /* apply DOWN-SLOPE Flow */
(PID.TID 0000.0001)                   F
(PID.TID 0000.0001)     ;
(PID.TID 0000.0001) PTRACERS_useKPP = /* apply KPP scheme */
(PID.TID 0000.0001)                   T
(PID.TID 0000.0001)     ;
(PID.TID 0000.0001) PTRACERS_ref = /* Reference vertical profile */
(PID.TID 0000.0001)    35 @  0.000000000000000E+00              /* K =  1: 35 */
(PID.TID 0000.0001)     ;
(PID.TID 0000.0001) PTRACERS_EvPrRn =/* tracer conc. in Evap. & Rain */
(PID.TID 0000.0001)                 1.234567000000000E+05
(PID.TID 0000.0001)     ;
(PID.TID 0000.0001)  -----------------------------------
(PID.TID 0000.0001)  tracer number :   63
(PID.TID 0000.0001) PTRACERS_names = /* Tracer short name */
(PID.TID 0000.0001)               'n06'
(PID.TID 0000.0001)     ;
(PID.TID 0000.0001) PTRACERS_long_names = /* Tracer long name */
(PID.TID 0000.0001)               ''
(PID.TID 0000.0001)     ;
(PID.TID 0000.0001) PTRACERS_ioLabel = /* tracer IO Label */
(PID.TID 0000.0001)               '63'
(PID.TID 0000.0001)     ;
(PID.TID 0000.0001) PTRACERS_advScheme = /* Advection Scheme */
(PID.TID 0000.0001)                      33
(PID.TID 0000.0001)     ;
(PID.TID 0000.0001) PTRACERS_SOM_Advection = /* tracer uses SOM advection scheme */
(PID.TID 0000.0001)                   F
(PID.TID 0000.0001)     ;
(PID.TID 0000.0001) PTRACERS_ImplVertAdv = /* implicit vert. advection flag */
(PID.TID 0000.0001)                   F
(PID.TID 0000.0001)     ;
(PID.TID 0000.0001) PTRACERS_MultiDimAdv = /* tracer uses Multi-Dim advection */
(PID.TID 0000.0001)                   T
(PID.TID 0000.0001)     ;
(PID.TID 0000.0001) PTRACERS_AdamsBashGtr = /* apply AB on tracer tendency */
(PID.TID 0000.0001)                   F
(PID.TID 0000.0001)     ;
(PID.TID 0000.0001) PTRACERS_AdamsBash_Tr = /* apply AB on passive tracer */
(PID.TID 0000.0001)                   F
(PID.TID 0000.0001)     ;
(PID.TID 0000.0001) PTRACERS_diffKh = /* Laplacian Diffusivity */
(PID.TID 0000.0001)                 0.000000000000000E+00
(PID.TID 0000.0001)     ;
(PID.TID 0000.0001) PTRACERS_diffK4 = /* Biharmonic Diffusivity */
(PID.TID 0000.0001)                 0.000000000000000E+00
(PID.TID 0000.0001)     ;
(PID.TID 0000.0001) PTRACERS_diffKrNr = /* Vertical Diffusivity */
(PID.TID 0000.0001)    35 @  1.000000000000000E-05              /* K =  1: 35 */
(PID.TID 0000.0001)     ;
(PID.TID 0000.0001) PTRACERS_useGMRedi = /* apply GM-Redi */
(PID.TID 0000.0001)                   F
(PID.TID 0000.0001)     ;
(PID.TID 0000.0001) PTRACERS_useDWNSLP = /* apply DOWN-SLOPE Flow */
(PID.TID 0000.0001)                   F
(PID.TID 0000.0001)     ;
(PID.TID 0000.0001) PTRACERS_useKPP = /* apply KPP scheme */
(PID.TID 0000.0001)                   T
(PID.TID 0000.0001)     ;
(PID.TID 0000.0001) PTRACERS_ref = /* Reference vertical profile */
(PID.TID 0000.0001)    35 @  0.000000000000000E+00              /* K =  1: 35 */
(PID.TID 0000.0001)     ;
(PID.TID 0000.0001) PTRACERS_EvPrRn =/* tracer conc. in Evap. & Rain */
(PID.TID 0000.0001)                 1.234567000000000E+05
(PID.TID 0000.0001)     ;
(PID.TID 0000.0001)  -----------------------------------
(PID.TID 0000.0001)  tracer number :   64
(PID.TID 0000.0001) PTRACERS_names = /* Tracer short name */
(PID.TID 0000.0001)               'n07'
(PID.TID 0000.0001)     ;
(PID.TID 0000.0001) PTRACERS_long_names = /* Tracer long name */
(PID.TID 0000.0001)               ''
(PID.TID 0000.0001)     ;
(PID.TID 0000.0001) PTRACERS_ioLabel = /* tracer IO Label */
(PID.TID 0000.0001)               '64'
(PID.TID 0000.0001)     ;
(PID.TID 0000.0001) PTRACERS_advScheme = /* Advection Scheme */
(PID.TID 0000.0001)                      33
(PID.TID 0000.0001)     ;
(PID.TID 0000.0001) PTRACERS_SOM_Advection = /* tracer uses SOM advection scheme */
(PID.TID 0000.0001)                   F
(PID.TID 0000.0001)     ;
(PID.TID 0000.0001) PTRACERS_ImplVertAdv = /* implicit vert. advection flag */
(PID.TID 0000.0001)                   F
(PID.TID 0000.0001)     ;
(PID.TID 0000.0001) PTRACERS_MultiDimAdv = /* tracer uses Multi-Dim advection */
(PID.TID 0000.0001)                   T
(PID.TID 0000.0001)     ;
(PID.TID 0000.0001) PTRACERS_AdamsBashGtr = /* apply AB on tracer tendency */
(PID.TID 0000.0001)                   F
(PID.TID 0000.0001)     ;
(PID.TID 0000.0001) PTRACERS_AdamsBash_Tr = /* apply AB on passive tracer */
(PID.TID 0000.0001)                   F
(PID.TID 0000.0001)     ;
(PID.TID 0000.0001) PTRACERS_diffKh = /* Laplacian Diffusivity */
(PID.TID 0000.0001)                 0.000000000000000E+00
(PID.TID 0000.0001)     ;
(PID.TID 0000.0001) PTRACERS_diffK4 = /* Biharmonic Diffusivity */
(PID.TID 0000.0001)                 0.000000000000000E+00
(PID.TID 0000.0001)     ;
(PID.TID 0000.0001) PTRACERS_diffKrNr = /* Vertical Diffusivity */
(PID.TID 0000.0001)    35 @  1.000000000000000E-05              /* K =  1: 35 */
(PID.TID 0000.0001)     ;
(PID.TID 0000.0001) PTRACERS_useGMRedi = /* apply GM-Redi */
(PID.TID 0000.0001)                   F
(PID.TID 0000.0001)     ;
(PID.TID 0000.0001) PTRACERS_useDWNSLP = /* apply DOWN-SLOPE Flow */
(PID.TID 0000.0001)                   F
(PID.TID 0000.0001)     ;
(PID.TID 0000.0001) PTRACERS_useKPP = /* apply KPP scheme */
(PID.TID 0000.0001)                   T
(PID.TID 0000.0001)     ;
(PID.TID 0000.0001) PTRACERS_ref = /* Reference vertical profile */
(PID.TID 0000.0001)    35 @  0.000000000000000E+00              /* K =  1: 35 */
(PID.TID 0000.0001)     ;
(PID.TID 0000.0001) PTRACERS_EvPrRn =/* tracer conc. in Evap. & Rain */
(PID.TID 0000.0001)                 1.234567000000000E+05
(PID.TID 0000.0001)     ;
(PID.TID 0000.0001)  -----------------------------------
(PID.TID 0000.0001)  tracer number :   65
(PID.TID 0000.0001) PTRACERS_names = /* Tracer short name */
(PID.TID 0000.0001)               'n08'
(PID.TID 0000.0001)     ;
(PID.TID 0000.0001) PTRACERS_long_names = /* Tracer long name */
(PID.TID 0000.0001)               ''
(PID.TID 0000.0001)     ;
(PID.TID 0000.0001) PTRACERS_ioLabel = /* tracer IO Label */
(PID.TID 0000.0001)               '65'
(PID.TID 0000.0001)     ;
(PID.TID 0000.0001) PTRACERS_advScheme = /* Advection Scheme */
(PID.TID 0000.0001)                      33
(PID.TID 0000.0001)     ;
(PID.TID 0000.0001) PTRACERS_SOM_Advection = /* tracer uses SOM advection scheme */
(PID.TID 0000.0001)                   F
(PID.TID 0000.0001)     ;
(PID.TID 0000.0001) PTRACERS_ImplVertAdv = /* implicit vert. advection flag */
(PID.TID 0000.0001)                   F
(PID.TID 0000.0001)     ;
(PID.TID 0000.0001) PTRACERS_MultiDimAdv = /* tracer uses Multi-Dim advection */
(PID.TID 0000.0001)                   T
(PID.TID 0000.0001)     ;
(PID.TID 0000.0001) PTRACERS_AdamsBashGtr = /* apply AB on tracer tendency */
(PID.TID 0000.0001)                   F
(PID.TID 0000.0001)     ;
(PID.TID 0000.0001) PTRACERS_AdamsBash_Tr = /* apply AB on passive tracer */
(PID.TID 0000.0001)                   F
(PID.TID 0000.0001)     ;
(PID.TID 0000.0001) PTRACERS_diffKh = /* Laplacian Diffusivity */
(PID.TID 0000.0001)                 0.000000000000000E+00
(PID.TID 0000.0001)     ;
(PID.TID 0000.0001) PTRACERS_diffK4 = /* Biharmonic Diffusivity */
(PID.TID 0000.0001)                 0.000000000000000E+00
(PID.TID 0000.0001)     ;
(PID.TID 0000.0001) PTRACERS_diffKrNr = /* Vertical Diffusivity */
(PID.TID 0000.0001)    35 @  1.000000000000000E-05              /* K =  1: 35 */
(PID.TID 0000.0001)     ;
(PID.TID 0000.0001) PTRACERS_useGMRedi = /* apply GM-Redi */
(PID.TID 0000.0001)                   F
(PID.TID 0000.0001)     ;
(PID.TID 0000.0001) PTRACERS_useDWNSLP = /* apply DOWN-SLOPE Flow */
(PID.TID 0000.0001)                   F
(PID.TID 0000.0001)     ;
(PID.TID 0000.0001) PTRACERS_useKPP = /* apply KPP scheme */
(PID.TID 0000.0001)                   T
(PID.TID 0000.0001)     ;
(PID.TID 0000.0001) PTRACERS_ref = /* Reference vertical profile */
(PID.TID 0000.0001)    35 @  0.000000000000000E+00              /* K =  1: 35 */
(PID.TID 0000.0001)     ;
(PID.TID 0000.0001) PTRACERS_EvPrRn =/* tracer conc. in Evap. & Rain */
(PID.TID 0000.0001)                 1.234567000000000E+05
(PID.TID 0000.0001)     ;
(PID.TID 0000.0001)  -----------------------------------
(PID.TID 0000.0001)  tracer number :   66
(PID.TID 0000.0001) PTRACERS_names = /* Tracer short name */
(PID.TID 0000.0001)               'n09'
(PID.TID 0000.0001)     ;
(PID.TID 0000.0001) PTRACERS_long_names = /* Tracer long name */
(PID.TID 0000.0001)               ''
(PID.TID 0000.0001)     ;
(PID.TID 0000.0001) PTRACERS_ioLabel = /* tracer IO Label */
(PID.TID 0000.0001)               '66'
(PID.TID 0000.0001)     ;
(PID.TID 0000.0001) PTRACERS_advScheme = /* Advection Scheme */
(PID.TID 0000.0001)                      33
(PID.TID 0000.0001)     ;
(PID.TID 0000.0001) PTRACERS_SOM_Advection = /* tracer uses SOM advection scheme */
(PID.TID 0000.0001)                   F
(PID.TID 0000.0001)     ;
(PID.TID 0000.0001) PTRACERS_ImplVertAdv = /* implicit vert. advection flag */
(PID.TID 0000.0001)                   F
(PID.TID 0000.0001)     ;
(PID.TID 0000.0001) PTRACERS_MultiDimAdv = /* tracer uses Multi-Dim advection */
(PID.TID 0000.0001)                   T
(PID.TID 0000.0001)     ;
(PID.TID 0000.0001) PTRACERS_AdamsBashGtr = /* apply AB on tracer tendency */
(PID.TID 0000.0001)                   F
(PID.TID 0000.0001)     ;
(PID.TID 0000.0001) PTRACERS_AdamsBash_Tr = /* apply AB on passive tracer */
(PID.TID 0000.0001)                   F
(PID.TID 0000.0001)     ;
(PID.TID 0000.0001) PTRACERS_diffKh = /* Laplacian Diffusivity */
(PID.TID 0000.0001)                 0.000000000000000E+00
(PID.TID 0000.0001)     ;
(PID.TID 0000.0001) PTRACERS_diffK4 = /* Biharmonic Diffusivity */
(PID.TID 0000.0001)                 0.000000000000000E+00
(PID.TID 0000.0001)     ;
(PID.TID 0000.0001) PTRACERS_diffKrNr = /* Vertical Diffusivity */
(PID.TID 0000.0001)    35 @  1.000000000000000E-05              /* K =  1: 35 */
(PID.TID 0000.0001)     ;
(PID.TID 0000.0001) PTRACERS_useGMRedi = /* apply GM-Redi */
(PID.TID 0000.0001)                   F
(PID.TID 0000.0001)     ;
(PID.TID 0000.0001) PTRACERS_useDWNSLP = /* apply DOWN-SLOPE Flow */
(PID.TID 0000.0001)                   F
(PID.TID 0000.0001)     ;
(PID.TID 0000.0001) PTRACERS_useKPP = /* apply KPP scheme */
(PID.TID 0000.0001)                   T
(PID.TID 0000.0001)     ;
(PID.TID 0000.0001) PTRACERS_ref = /* Reference vertical profile */
(PID.TID 0000.0001)    35 @  0.000000000000000E+00              /* K =  1: 35 */
(PID.TID 0000.0001)     ;
(PID.TID 0000.0001) PTRACERS_EvPrRn =/* tracer conc. in Evap. & Rain */
(PID.TID 0000.0001)                 1.234567000000000E+05
(PID.TID 0000.0001)     ;
(PID.TID 0000.0001)  -----------------------------------
(PID.TID 0000.0001)  tracer number :   67
(PID.TID 0000.0001) PTRACERS_names = /* Tracer short name */
(PID.TID 0000.0001)               'n10'
(PID.TID 0000.0001)     ;
(PID.TID 0000.0001) PTRACERS_long_names = /* Tracer long name */
(PID.TID 0000.0001)               ''
(PID.TID 0000.0001)     ;
(PID.TID 0000.0001) PTRACERS_ioLabel = /* tracer IO Label */
(PID.TID 0000.0001)               '67'
(PID.TID 0000.0001)     ;
(PID.TID 0000.0001) PTRACERS_advScheme = /* Advection Scheme */
(PID.TID 0000.0001)                      33
(PID.TID 0000.0001)     ;
(PID.TID 0000.0001) PTRACERS_SOM_Advection = /* tracer uses SOM advection scheme */
(PID.TID 0000.0001)                   F
(PID.TID 0000.0001)     ;
(PID.TID 0000.0001) PTRACERS_ImplVertAdv = /* implicit vert. advection flag */
(PID.TID 0000.0001)                   F
(PID.TID 0000.0001)     ;
(PID.TID 0000.0001) PTRACERS_MultiDimAdv = /* tracer uses Multi-Dim advection */
(PID.TID 0000.0001)                   T
(PID.TID 0000.0001)     ;
(PID.TID 0000.0001) PTRACERS_AdamsBashGtr = /* apply AB on tracer tendency */
(PID.TID 0000.0001)                   F
(PID.TID 0000.0001)     ;
(PID.TID 0000.0001) PTRACERS_AdamsBash_Tr = /* apply AB on passive tracer */
(PID.TID 0000.0001)                   F
(PID.TID 0000.0001)     ;
(PID.TID 0000.0001) PTRACERS_diffKh = /* Laplacian Diffusivity */
(PID.TID 0000.0001)                 0.000000000000000E+00
(PID.TID 0000.0001)     ;
(PID.TID 0000.0001) PTRACERS_diffK4 = /* Biharmonic Diffusivity */
(PID.TID 0000.0001)                 0.000000000000000E+00
(PID.TID 0000.0001)     ;
(PID.TID 0000.0001) PTRACERS_diffKrNr = /* Vertical Diffusivity */
(PID.TID 0000.0001)    35 @  1.000000000000000E-05              /* K =  1: 35 */
(PID.TID 0000.0001)     ;
(PID.TID 0000.0001) PTRACERS_useGMRedi = /* apply GM-Redi */
(PID.TID 0000.0001)                   F
(PID.TID 0000.0001)     ;
(PID.TID 0000.0001) PTRACERS_useDWNSLP = /* apply DOWN-SLOPE Flow */
(PID.TID 0000.0001)                   F
(PID.TID 0000.0001)     ;
(PID.TID 0000.0001) PTRACERS_useKPP = /* apply KPP scheme */
(PID.TID 0000.0001)                   T
(PID.TID 0000.0001)     ;
(PID.TID 0000.0001) PTRACERS_ref = /* Reference vertical profile */
(PID.TID 0000.0001)    35 @  0.000000000000000E+00              /* K =  1: 35 */
(PID.TID 0000.0001)     ;
(PID.TID 0000.0001) PTRACERS_EvPrRn =/* tracer conc. in Evap. & Rain */
(PID.TID 0000.0001)                 1.234567000000000E+05
(PID.TID 0000.0001)     ;
(PID.TID 0000.0001)  -----------------------------------
(PID.TID 0000.0001)  tracer number :   68
(PID.TID 0000.0001) PTRACERS_names = /* Tracer short name */
(PID.TID 0000.0001)               'n11'
(PID.TID 0000.0001)     ;
(PID.TID 0000.0001) PTRACERS_long_names = /* Tracer long name */
(PID.TID 0000.0001)               ''
(PID.TID 0000.0001)     ;
(PID.TID 0000.0001) PTRACERS_ioLabel = /* tracer IO Label */
(PID.TID 0000.0001)               '68'
(PID.TID 0000.0001)     ;
(PID.TID 0000.0001) PTRACERS_advScheme = /* Advection Scheme */
(PID.TID 0000.0001)                      33
(PID.TID 0000.0001)     ;
(PID.TID 0000.0001) PTRACERS_SOM_Advection = /* tracer uses SOM advection scheme */
(PID.TID 0000.0001)                   F
(PID.TID 0000.0001)     ;
(PID.TID 0000.0001) PTRACERS_ImplVertAdv = /* implicit vert. advection flag */
(PID.TID 0000.0001)                   F
(PID.TID 0000.0001)     ;
(PID.TID 0000.0001) PTRACERS_MultiDimAdv = /* tracer uses Multi-Dim advection */
(PID.TID 0000.0001)                   T
(PID.TID 0000.0001)     ;
(PID.TID 0000.0001) PTRACERS_AdamsBashGtr = /* apply AB on tracer tendency */
(PID.TID 0000.0001)                   F
(PID.TID 0000.0001)     ;
(PID.TID 0000.0001) PTRACERS_AdamsBash_Tr = /* apply AB on passive tracer */
(PID.TID 0000.0001)                   F
(PID.TID 0000.0001)     ;
(PID.TID 0000.0001) PTRACERS_diffKh = /* Laplacian Diffusivity */
(PID.TID 0000.0001)                 0.000000000000000E+00
(PID.TID 0000.0001)     ;
(PID.TID 0000.0001) PTRACERS_diffK4 = /* Biharmonic Diffusivity */
(PID.TID 0000.0001)                 0.000000000000000E+00
(PID.TID 0000.0001)     ;
(PID.TID 0000.0001) PTRACERS_diffKrNr = /* Vertical Diffusivity */
(PID.TID 0000.0001)    35 @  1.000000000000000E-05              /* K =  1: 35 */
(PID.TID 0000.0001)     ;
(PID.TID 0000.0001) PTRACERS_useGMRedi = /* apply GM-Redi */
(PID.TID 0000.0001)                   F
(PID.TID 0000.0001)     ;
(PID.TID 0000.0001) PTRACERS_useDWNSLP = /* apply DOWN-SLOPE Flow */
(PID.TID 0000.0001)                   F
(PID.TID 0000.0001)     ;
(PID.TID 0000.0001) PTRACERS_useKPP = /* apply KPP scheme */
(PID.TID 0000.0001)                   T
(PID.TID 0000.0001)     ;
(PID.TID 0000.0001) PTRACERS_ref = /* Reference vertical profile */
(PID.TID 0000.0001)    35 @  0.000000000000000E+00              /* K =  1: 35 */
(PID.TID 0000.0001)     ;
(PID.TID 0000.0001) PTRACERS_EvPrRn =/* tracer conc. in Evap. & Rain */
(PID.TID 0000.0001)                 1.234567000000000E+05
(PID.TID 0000.0001)     ;
(PID.TID 0000.0001)  -----------------------------------
(PID.TID 0000.0001)  tracer number :   69
(PID.TID 0000.0001) PTRACERS_names = /* Tracer short name */
(PID.TID 0000.0001)               'n12'
(PID.TID 0000.0001)     ;
(PID.TID 0000.0001) PTRACERS_long_names = /* Tracer long name */
(PID.TID 0000.0001)               ''
(PID.TID 0000.0001)     ;
(PID.TID 0000.0001) PTRACERS_ioLabel = /* tracer IO Label */
(PID.TID 0000.0001)               '69'
(PID.TID 0000.0001)     ;
(PID.TID 0000.0001) PTRACERS_advScheme = /* Advection Scheme */
(PID.TID 0000.0001)                      33
(PID.TID 0000.0001)     ;
(PID.TID 0000.0001) PTRACERS_SOM_Advection = /* tracer uses SOM advection scheme */
(PID.TID 0000.0001)                   F
(PID.TID 0000.0001)     ;
(PID.TID 0000.0001) PTRACERS_ImplVertAdv = /* implicit vert. advection flag */
(PID.TID 0000.0001)                   F
(PID.TID 0000.0001)     ;
(PID.TID 0000.0001) PTRACERS_MultiDimAdv = /* tracer uses Multi-Dim advection */
(PID.TID 0000.0001)                   T
(PID.TID 0000.0001)     ;
(PID.TID 0000.0001) PTRACERS_AdamsBashGtr = /* apply AB on tracer tendency */
(PID.TID 0000.0001)                   F
(PID.TID 0000.0001)     ;
(PID.TID 0000.0001) PTRACERS_AdamsBash_Tr = /* apply AB on passive tracer */
(PID.TID 0000.0001)                   F
(PID.TID 0000.0001)     ;
(PID.TID 0000.0001) PTRACERS_diffKh = /* Laplacian Diffusivity */
(PID.TID 0000.0001)                 0.000000000000000E+00
(PID.TID 0000.0001)     ;
(PID.TID 0000.0001) PTRACERS_diffK4 = /* Biharmonic Diffusivity */
(PID.TID 0000.0001)                 0.000000000000000E+00
(PID.TID 0000.0001)     ;
(PID.TID 0000.0001) PTRACERS_diffKrNr = /* Vertical Diffusivity */
(PID.TID 0000.0001)    35 @  1.000000000000000E-05              /* K =  1: 35 */
(PID.TID 0000.0001)     ;
(PID.TID 0000.0001) PTRACERS_useGMRedi = /* apply GM-Redi */
(PID.TID 0000.0001)                   F
(PID.TID 0000.0001)     ;
(PID.TID 0000.0001) PTRACERS_useDWNSLP = /* apply DOWN-SLOPE Flow */
(PID.TID 0000.0001)                   F
(PID.TID 0000.0001)     ;
(PID.TID 0000.0001) PTRACERS_useKPP = /* apply KPP scheme */
(PID.TID 0000.0001)                   T
(PID.TID 0000.0001)     ;
(PID.TID 0000.0001) PTRACERS_ref = /* Reference vertical profile */
(PID.TID 0000.0001)    35 @  0.000000000000000E+00              /* K =  1: 35 */
(PID.TID 0000.0001)     ;
(PID.TID 0000.0001) PTRACERS_EvPrRn =/* tracer conc. in Evap. & Rain */
(PID.TID 0000.0001)                 1.234567000000000E+05
(PID.TID 0000.0001)     ;
(PID.TID 0000.0001)  -----------------------------------
(PID.TID 0000.0001)  tracer number :   70
(PID.TID 0000.0001) PTRACERS_names = /* Tracer short name */
(PID.TID 0000.0001)               'n13'
(PID.TID 0000.0001)     ;
(PID.TID 0000.0001) PTRACERS_long_names = /* Tracer long name */
(PID.TID 0000.0001)               ''
(PID.TID 0000.0001)     ;
(PID.TID 0000.0001) PTRACERS_ioLabel = /* tracer IO Label */
(PID.TID 0000.0001)               '70'
(PID.TID 0000.0001)     ;
(PID.TID 0000.0001) PTRACERS_advScheme = /* Advection Scheme */
(PID.TID 0000.0001)                      33
(PID.TID 0000.0001)     ;
(PID.TID 0000.0001) PTRACERS_SOM_Advection = /* tracer uses SOM advection scheme */
(PID.TID 0000.0001)                   F
(PID.TID 0000.0001)     ;
(PID.TID 0000.0001) PTRACERS_ImplVertAdv = /* implicit vert. advection flag */
(PID.TID 0000.0001)                   F
(PID.TID 0000.0001)     ;
(PID.TID 0000.0001) PTRACERS_MultiDimAdv = /* tracer uses Multi-Dim advection */
(PID.TID 0000.0001)                   T
(PID.TID 0000.0001)     ;
(PID.TID 0000.0001) PTRACERS_AdamsBashGtr = /* apply AB on tracer tendency */
(PID.TID 0000.0001)                   F
(PID.TID 0000.0001)     ;
(PID.TID 0000.0001) PTRACERS_AdamsBash_Tr = /* apply AB on passive tracer */
(PID.TID 0000.0001)                   F
(PID.TID 0000.0001)     ;
(PID.TID 0000.0001) PTRACERS_diffKh = /* Laplacian Diffusivity */
(PID.TID 0000.0001)                 0.000000000000000E+00
(PID.TID 0000.0001)     ;
(PID.TID 0000.0001) PTRACERS_diffK4 = /* Biharmonic Diffusivity */
(PID.TID 0000.0001)                 0.000000000000000E+00
(PID.TID 0000.0001)     ;
(PID.TID 0000.0001) PTRACERS_diffKrNr = /* Vertical Diffusivity */
(PID.TID 0000.0001)    35 @  1.000000000000000E-05              /* K =  1: 35 */
(PID.TID 0000.0001)     ;
(PID.TID 0000.0001) PTRACERS_useGMRedi = /* apply GM-Redi */
(PID.TID 0000.0001)                   F
(PID.TID 0000.0001)     ;
(PID.TID 0000.0001) PTRACERS_useDWNSLP = /* apply DOWN-SLOPE Flow */
(PID.TID 0000.0001)                   F
(PID.TID 0000.0001)     ;
(PID.TID 0000.0001) PTRACERS_useKPP = /* apply KPP scheme */
(PID.TID 0000.0001)                   T
(PID.TID 0000.0001)     ;
(PID.TID 0000.0001) PTRACERS_ref = /* Reference vertical profile */
(PID.TID 0000.0001)    35 @  0.000000000000000E+00              /* K =  1: 35 */
(PID.TID 0000.0001)     ;
(PID.TID 0000.0001) PTRACERS_EvPrRn =/* tracer conc. in Evap. & Rain */
(PID.TID 0000.0001)                 1.234567000000000E+05
(PID.TID 0000.0001)     ;
(PID.TID 0000.0001)  -----------------------------------
(PID.TID 0000.0001)  tracer number :   71
(PID.TID 0000.0001) PTRACERS_names = /* Tracer short name */
(PID.TID 0000.0001)               'n14'
(PID.TID 0000.0001)     ;
(PID.TID 0000.0001) PTRACERS_long_names = /* Tracer long name */
(PID.TID 0000.0001)               ''
(PID.TID 0000.0001)     ;
(PID.TID 0000.0001) PTRACERS_ioLabel = /* tracer IO Label */
(PID.TID 0000.0001)               '71'
(PID.TID 0000.0001)     ;
(PID.TID 0000.0001) PTRACERS_advScheme = /* Advection Scheme */
(PID.TID 0000.0001)                      33
(PID.TID 0000.0001)     ;
(PID.TID 0000.0001) PTRACERS_SOM_Advection = /* tracer uses SOM advection scheme */
(PID.TID 0000.0001)                   F
(PID.TID 0000.0001)     ;
(PID.TID 0000.0001) PTRACERS_ImplVertAdv = /* implicit vert. advection flag */
(PID.TID 0000.0001)                   F
(PID.TID 0000.0001)     ;
(PID.TID 0000.0001) PTRACERS_MultiDimAdv = /* tracer uses Multi-Dim advection */
(PID.TID 0000.0001)                   T
(PID.TID 0000.0001)     ;
(PID.TID 0000.0001) PTRACERS_AdamsBashGtr = /* apply AB on tracer tendency */
(PID.TID 0000.0001)                   F
(PID.TID 0000.0001)     ;
(PID.TID 0000.0001) PTRACERS_AdamsBash_Tr = /* apply AB on passive tracer */
(PID.TID 0000.0001)                   F
(PID.TID 0000.0001)     ;
(PID.TID 0000.0001) PTRACERS_diffKh = /* Laplacian Diffusivity */
(PID.TID 0000.0001)                 0.000000000000000E+00
(PID.TID 0000.0001)     ;
(PID.TID 0000.0001) PTRACERS_diffK4 = /* Biharmonic Diffusivity */
(PID.TID 0000.0001)                 0.000000000000000E+00
(PID.TID 0000.0001)     ;
(PID.TID 0000.0001) PTRACERS_diffKrNr = /* Vertical Diffusivity */
(PID.TID 0000.0001)    35 @  1.000000000000000E-05              /* K =  1: 35 */
(PID.TID 0000.0001)     ;
(PID.TID 0000.0001) PTRACERS_useGMRedi = /* apply GM-Redi */
(PID.TID 0000.0001)                   F
(PID.TID 0000.0001)     ;
(PID.TID 0000.0001) PTRACERS_useDWNSLP = /* apply DOWN-SLOPE Flow */
(PID.TID 0000.0001)                   F
(PID.TID 0000.0001)     ;
(PID.TID 0000.0001) PTRACERS_useKPP = /* apply KPP scheme */
(PID.TID 0000.0001)                   T
(PID.TID 0000.0001)     ;
(PID.TID 0000.0001) PTRACERS_ref = /* Reference vertical profile */
(PID.TID 0000.0001)    35 @  0.000000000000000E+00              /* K =  1: 35 */
(PID.TID 0000.0001)     ;
(PID.TID 0000.0001) PTRACERS_EvPrRn =/* tracer conc. in Evap. & Rain */
(PID.TID 0000.0001)                 1.234567000000000E+05
(PID.TID 0000.0001)     ;
(PID.TID 0000.0001)  -----------------------------------
(PID.TID 0000.0001)  tracer number :   72
(PID.TID 0000.0001) PTRACERS_names = /* Tracer short name */
(PID.TID 0000.0001)               'n15'
(PID.TID 0000.0001)     ;
(PID.TID 0000.0001) PTRACERS_long_names = /* Tracer long name */
(PID.TID 0000.0001)               ''
(PID.TID 0000.0001)     ;
(PID.TID 0000.0001) PTRACERS_ioLabel = /* tracer IO Label */
(PID.TID 0000.0001)               '72'
(PID.TID 0000.0001)     ;
(PID.TID 0000.0001) PTRACERS_advScheme = /* Advection Scheme */
(PID.TID 0000.0001)                      33
(PID.TID 0000.0001)     ;
(PID.TID 0000.0001) PTRACERS_SOM_Advection = /* tracer uses SOM advection scheme */
(PID.TID 0000.0001)                   F
(PID.TID 0000.0001)     ;
(PID.TID 0000.0001) PTRACERS_ImplVertAdv = /* implicit vert. advection flag */
(PID.TID 0000.0001)                   F
(PID.TID 0000.0001)     ;
(PID.TID 0000.0001) PTRACERS_MultiDimAdv = /* tracer uses Multi-Dim advection */
(PID.TID 0000.0001)                   T
(PID.TID 0000.0001)     ;
(PID.TID 0000.0001) PTRACERS_AdamsBashGtr = /* apply AB on tracer tendency */
(PID.TID 0000.0001)                   F
(PID.TID 0000.0001)     ;
(PID.TID 0000.0001) PTRACERS_AdamsBash_Tr = /* apply AB on passive tracer */
(PID.TID 0000.0001)                   F
(PID.TID 0000.0001)     ;
(PID.TID 0000.0001) PTRACERS_diffKh = /* Laplacian Diffusivity */
(PID.TID 0000.0001)                 0.000000000000000E+00
(PID.TID 0000.0001)     ;
(PID.TID 0000.0001) PTRACERS_diffK4 = /* Biharmonic Diffusivity */
(PID.TID 0000.0001)                 0.000000000000000E+00
(PID.TID 0000.0001)     ;
(PID.TID 0000.0001) PTRACERS_diffKrNr = /* Vertical Diffusivity */
(PID.TID 0000.0001)    35 @  1.000000000000000E-05              /* K =  1: 35 */
(PID.TID 0000.0001)     ;
(PID.TID 0000.0001) PTRACERS_useGMRedi = /* apply GM-Redi */
(PID.TID 0000.0001)                   F
(PID.TID 0000.0001)     ;
(PID.TID 0000.0001) PTRACERS_useDWNSLP = /* apply DOWN-SLOPE Flow */
(PID.TID 0000.0001)                   F
(PID.TID 0000.0001)     ;
(PID.TID 0000.0001) PTRACERS_useKPP = /* apply KPP scheme */
(PID.TID 0000.0001)                   T
(PID.TID 0000.0001)     ;
(PID.TID 0000.0001) PTRACERS_ref = /* Reference vertical profile */
(PID.TID 0000.0001)    35 @  0.000000000000000E+00              /* K =  1: 35 */
(PID.TID 0000.0001)     ;
(PID.TID 0000.0001) PTRACERS_EvPrRn =/* tracer conc. in Evap. & Rain */
(PID.TID 0000.0001)                 1.234567000000000E+05
(PID.TID 0000.0001)     ;
(PID.TID 0000.0001)  -----------------------------------
(PID.TID 0000.0001)  tracer number :   73
(PID.TID 0000.0001) PTRACERS_names = /* Tracer short name */
(PID.TID 0000.0001)               'n16'
(PID.TID 0000.0001)     ;
(PID.TID 0000.0001) PTRACERS_long_names = /* Tracer long name */
(PID.TID 0000.0001)               ''
(PID.TID 0000.0001)     ;
(PID.TID 0000.0001) PTRACERS_ioLabel = /* tracer IO Label */
(PID.TID 0000.0001)               '73'
(PID.TID 0000.0001)     ;
(PID.TID 0000.0001) PTRACERS_advScheme = /* Advection Scheme */
(PID.TID 0000.0001)                      33
(PID.TID 0000.0001)     ;
(PID.TID 0000.0001) PTRACERS_SOM_Advection = /* tracer uses SOM advection scheme */
(PID.TID 0000.0001)                   F
(PID.TID 0000.0001)     ;
(PID.TID 0000.0001) PTRACERS_ImplVertAdv = /* implicit vert. advection flag */
(PID.TID 0000.0001)                   F
(PID.TID 0000.0001)     ;
(PID.TID 0000.0001) PTRACERS_MultiDimAdv = /* tracer uses Multi-Dim advection */
(PID.TID 0000.0001)                   T
(PID.TID 0000.0001)     ;
(PID.TID 0000.0001) PTRACERS_AdamsBashGtr = /* apply AB on tracer tendency */
(PID.TID 0000.0001)                   F
(PID.TID 0000.0001)     ;
(PID.TID 0000.0001) PTRACERS_AdamsBash_Tr = /* apply AB on passive tracer */
(PID.TID 0000.0001)                   F
(PID.TID 0000.0001)     ;
(PID.TID 0000.0001) PTRACERS_diffKh = /* Laplacian Diffusivity */
(PID.TID 0000.0001)                 0.000000000000000E+00
(PID.TID 0000.0001)     ;
(PID.TID 0000.0001) PTRACERS_diffK4 = /* Biharmonic Diffusivity */
(PID.TID 0000.0001)                 0.000000000000000E+00
(PID.TID 0000.0001)     ;
(PID.TID 0000.0001) PTRACERS_diffKrNr = /* Vertical Diffusivity */
(PID.TID 0000.0001)    35 @  1.000000000000000E-05              /* K =  1: 35 */
(PID.TID 0000.0001)     ;
(PID.TID 0000.0001) PTRACERS_useGMRedi = /* apply GM-Redi */
(PID.TID 0000.0001)                   F
(PID.TID 0000.0001)     ;
(PID.TID 0000.0001) PTRACERS_useDWNSLP = /* apply DOWN-SLOPE Flow */
(PID.TID 0000.0001)                   F
(PID.TID 0000.0001)     ;
(PID.TID 0000.0001) PTRACERS_useKPP = /* apply KPP scheme */
(PID.TID 0000.0001)                   T
(PID.TID 0000.0001)     ;
(PID.TID 0000.0001) PTRACERS_ref = /* Reference vertical profile */
(PID.TID 0000.0001)    35 @  0.000000000000000E+00              /* K =  1: 35 */
(PID.TID 0000.0001)     ;
(PID.TID 0000.0001) PTRACERS_EvPrRn =/* tracer conc. in Evap. & Rain */
(PID.TID 0000.0001)                 1.234567000000000E+05
(PID.TID 0000.0001)     ;
(PID.TID 0000.0001)  -----------------------------------
(PID.TID 0000.0001)  tracer number :   74
(PID.TID 0000.0001) PTRACERS_names = /* Tracer short name */
(PID.TID 0000.0001)               'n17'
(PID.TID 0000.0001)     ;
(PID.TID 0000.0001) PTRACERS_long_names = /* Tracer long name */
(PID.TID 0000.0001)               ''
(PID.TID 0000.0001)     ;
(PID.TID 0000.0001) PTRACERS_ioLabel = /* tracer IO Label */
(PID.TID 0000.0001)               '74'
(PID.TID 0000.0001)     ;
(PID.TID 0000.0001) PTRACERS_advScheme = /* Advection Scheme */
(PID.TID 0000.0001)                      33
(PID.TID 0000.0001)     ;
(PID.TID 0000.0001) PTRACERS_SOM_Advection = /* tracer uses SOM advection scheme */
(PID.TID 0000.0001)                   F
(PID.TID 0000.0001)     ;
(PID.TID 0000.0001) PTRACERS_ImplVertAdv = /* implicit vert. advection flag */
(PID.TID 0000.0001)                   F
(PID.TID 0000.0001)     ;
(PID.TID 0000.0001) PTRACERS_MultiDimAdv = /* tracer uses Multi-Dim advection */
(PID.TID 0000.0001)                   T
(PID.TID 0000.0001)     ;
(PID.TID 0000.0001) PTRACERS_AdamsBashGtr = /* apply AB on tracer tendency */
(PID.TID 0000.0001)                   F
(PID.TID 0000.0001)     ;
(PID.TID 0000.0001) PTRACERS_AdamsBash_Tr = /* apply AB on passive tracer */
(PID.TID 0000.0001)                   F
(PID.TID 0000.0001)     ;
(PID.TID 0000.0001) PTRACERS_diffKh = /* Laplacian Diffusivity */
(PID.TID 0000.0001)                 0.000000000000000E+00
(PID.TID 0000.0001)     ;
(PID.TID 0000.0001) PTRACERS_diffK4 = /* Biharmonic Diffusivity */
(PID.TID 0000.0001)                 0.000000000000000E+00
(PID.TID 0000.0001)     ;
(PID.TID 0000.0001) PTRACERS_diffKrNr = /* Vertical Diffusivity */
(PID.TID 0000.0001)    35 @  1.000000000000000E-05              /* K =  1: 35 */
(PID.TID 0000.0001)     ;
(PID.TID 0000.0001) PTRACERS_useGMRedi = /* apply GM-Redi */
(PID.TID 0000.0001)                   F
(PID.TID 0000.0001)     ;
(PID.TID 0000.0001) PTRACERS_useDWNSLP = /* apply DOWN-SLOPE Flow */
(PID.TID 0000.0001)                   F
(PID.TID 0000.0001)     ;
(PID.TID 0000.0001) PTRACERS_useKPP = /* apply KPP scheme */
(PID.TID 0000.0001)                   T
(PID.TID 0000.0001)     ;
(PID.TID 0000.0001) PTRACERS_ref = /* Reference vertical profile */
(PID.TID 0000.0001)    35 @  0.000000000000000E+00              /* K =  1: 35 */
(PID.TID 0000.0001)     ;
(PID.TID 0000.0001) PTRACERS_EvPrRn =/* tracer conc. in Evap. & Rain */
(PID.TID 0000.0001)                 1.234567000000000E+05
(PID.TID 0000.0001)     ;
(PID.TID 0000.0001)  -----------------------------------
(PID.TID 0000.0001)  tracer number :   75
(PID.TID 0000.0001) PTRACERS_names = /* Tracer short name */
(PID.TID 0000.0001)               'n18'
(PID.TID 0000.0001)     ;
(PID.TID 0000.0001) PTRACERS_long_names = /* Tracer long name */
(PID.TID 0000.0001)               ''
(PID.TID 0000.0001)     ;
(PID.TID 0000.0001) PTRACERS_ioLabel = /* tracer IO Label */
(PID.TID 0000.0001)               '75'
(PID.TID 0000.0001)     ;
(PID.TID 0000.0001) PTRACERS_advScheme = /* Advection Scheme */
(PID.TID 0000.0001)                      33
(PID.TID 0000.0001)     ;
(PID.TID 0000.0001) PTRACERS_SOM_Advection = /* tracer uses SOM advection scheme */
(PID.TID 0000.0001)                   F
(PID.TID 0000.0001)     ;
(PID.TID 0000.0001) PTRACERS_ImplVertAdv = /* implicit vert. advection flag */
(PID.TID 0000.0001)                   F
(PID.TID 0000.0001)     ;
(PID.TID 0000.0001) PTRACERS_MultiDimAdv = /* tracer uses Multi-Dim advection */
(PID.TID 0000.0001)                   T
(PID.TID 0000.0001)     ;
(PID.TID 0000.0001) PTRACERS_AdamsBashGtr = /* apply AB on tracer tendency */
(PID.TID 0000.0001)                   F
(PID.TID 0000.0001)     ;
(PID.TID 0000.0001) PTRACERS_AdamsBash_Tr = /* apply AB on passive tracer */
(PID.TID 0000.0001)                   F
(PID.TID 0000.0001)     ;
(PID.TID 0000.0001) PTRACERS_diffKh = /* Laplacian Diffusivity */
(PID.TID 0000.0001)                 0.000000000000000E+00
(PID.TID 0000.0001)     ;
(PID.TID 0000.0001) PTRACERS_diffK4 = /* Biharmonic Diffusivity */
(PID.TID 0000.0001)                 0.000000000000000E+00
(PID.TID 0000.0001)     ;
(PID.TID 0000.0001) PTRACERS_diffKrNr = /* Vertical Diffusivity */
(PID.TID 0000.0001)    35 @  1.000000000000000E-05              /* K =  1: 35 */
(PID.TID 0000.0001)     ;
(PID.TID 0000.0001) PTRACERS_useGMRedi = /* apply GM-Redi */
(PID.TID 0000.0001)                   F
(PID.TID 0000.0001)     ;
(PID.TID 0000.0001) PTRACERS_useDWNSLP = /* apply DOWN-SLOPE Flow */
(PID.TID 0000.0001)                   F
(PID.TID 0000.0001)     ;
(PID.TID 0000.0001) PTRACERS_useKPP = /* apply KPP scheme */
(PID.TID 0000.0001)                   T
(PID.TID 0000.0001)     ;
(PID.TID 0000.0001) PTRACERS_ref = /* Reference vertical profile */
(PID.TID 0000.0001)    35 @  0.000000000000000E+00              /* K =  1: 35 */
(PID.TID 0000.0001)     ;
(PID.TID 0000.0001) PTRACERS_EvPrRn =/* tracer conc. in Evap. & Rain */
(PID.TID 0000.0001)                 1.234567000000000E+05
(PID.TID 0000.0001)     ;
(PID.TID 0000.0001)  -----------------------------------
(PID.TID 0000.0001)  tracer number :   76
(PID.TID 0000.0001) PTRACERS_names = /* Tracer short name */
(PID.TID 0000.0001)               'n19'
(PID.TID 0000.0001)     ;
(PID.TID 0000.0001) PTRACERS_long_names = /* Tracer long name */
(PID.TID 0000.0001)               ''
(PID.TID 0000.0001)     ;
(PID.TID 0000.0001) PTRACERS_ioLabel = /* tracer IO Label */
(PID.TID 0000.0001)               '76'
(PID.TID 0000.0001)     ;
(PID.TID 0000.0001) PTRACERS_advScheme = /* Advection Scheme */
(PID.TID 0000.0001)                      33
(PID.TID 0000.0001)     ;
(PID.TID 0000.0001) PTRACERS_SOM_Advection = /* tracer uses SOM advection scheme */
(PID.TID 0000.0001)                   F
(PID.TID 0000.0001)     ;
(PID.TID 0000.0001) PTRACERS_ImplVertAdv = /* implicit vert. advection flag */
(PID.TID 0000.0001)                   F
(PID.TID 0000.0001)     ;
(PID.TID 0000.0001) PTRACERS_MultiDimAdv = /* tracer uses Multi-Dim advection */
(PID.TID 0000.0001)                   T
(PID.TID 0000.0001)     ;
(PID.TID 0000.0001) PTRACERS_AdamsBashGtr = /* apply AB on tracer tendency */
(PID.TID 0000.0001)                   F
(PID.TID 0000.0001)     ;
(PID.TID 0000.0001) PTRACERS_AdamsBash_Tr = /* apply AB on passive tracer */
(PID.TID 0000.0001)                   F
(PID.TID 0000.0001)     ;
(PID.TID 0000.0001) PTRACERS_diffKh = /* Laplacian Diffusivity */
(PID.TID 0000.0001)                 0.000000000000000E+00
(PID.TID 0000.0001)     ;
(PID.TID 0000.0001) PTRACERS_diffK4 = /* Biharmonic Diffusivity */
(PID.TID 0000.0001)                 0.000000000000000E+00
(PID.TID 0000.0001)     ;
(PID.TID 0000.0001) PTRACERS_diffKrNr = /* Vertical Diffusivity */
(PID.TID 0000.0001)    35 @  1.000000000000000E-05              /* K =  1: 35 */
(PID.TID 0000.0001)     ;
(PID.TID 0000.0001) PTRACERS_useGMRedi = /* apply GM-Redi */
(PID.TID 0000.0001)                   F
(PID.TID 0000.0001)     ;
(PID.TID 0000.0001) PTRACERS_useDWNSLP = /* apply DOWN-SLOPE Flow */
(PID.TID 0000.0001)                   F
(PID.TID 0000.0001)     ;
(PID.TID 0000.0001) PTRACERS_useKPP = /* apply KPP scheme */
(PID.TID 0000.0001)                   T
(PID.TID 0000.0001)     ;
(PID.TID 0000.0001) PTRACERS_ref = /* Reference vertical profile */
(PID.TID 0000.0001)    35 @  0.000000000000000E+00              /* K =  1: 35 */
(PID.TID 0000.0001)     ;
(PID.TID 0000.0001) PTRACERS_EvPrRn =/* tracer conc. in Evap. & Rain */
(PID.TID 0000.0001)                 1.234567000000000E+05
(PID.TID 0000.0001)     ;
(PID.TID 0000.0001)  -----------------------------------
(PID.TID 0000.0001)  tracer number :   77
(PID.TID 0000.0001) PTRACERS_names = /* Tracer short name */
(PID.TID 0000.0001)               'n20'
(PID.TID 0000.0001)     ;
(PID.TID 0000.0001) PTRACERS_long_names = /* Tracer long name */
(PID.TID 0000.0001)               ''
(PID.TID 0000.0001)     ;
(PID.TID 0000.0001) PTRACERS_ioLabel = /* tracer IO Label */
(PID.TID 0000.0001)               '77'
(PID.TID 0000.0001)     ;
(PID.TID 0000.0001) PTRACERS_advScheme = /* Advection Scheme */
(PID.TID 0000.0001)                      33
(PID.TID 0000.0001)     ;
(PID.TID 0000.0001) PTRACERS_SOM_Advection = /* tracer uses SOM advection scheme */
(PID.TID 0000.0001)                   F
(PID.TID 0000.0001)     ;
(PID.TID 0000.0001) PTRACERS_ImplVertAdv = /* implicit vert. advection flag */
(PID.TID 0000.0001)                   F
(PID.TID 0000.0001)     ;
(PID.TID 0000.0001) PTRACERS_MultiDimAdv = /* tracer uses Multi-Dim advection */
(PID.TID 0000.0001)                   T
(PID.TID 0000.0001)     ;
(PID.TID 0000.0001) PTRACERS_AdamsBashGtr = /* apply AB on tracer tendency */
(PID.TID 0000.0001)                   F
(PID.TID 0000.0001)     ;
(PID.TID 0000.0001) PTRACERS_AdamsBash_Tr = /* apply AB on passive tracer */
(PID.TID 0000.0001)                   F
(PID.TID 0000.0001)     ;
(PID.TID 0000.0001) PTRACERS_diffKh = /* Laplacian Diffusivity */
(PID.TID 0000.0001)                 0.000000000000000E+00
(PID.TID 0000.0001)     ;
(PID.TID 0000.0001) PTRACERS_diffK4 = /* Biharmonic Diffusivity */
(PID.TID 0000.0001)                 0.000000000000000E+00
(PID.TID 0000.0001)     ;
(PID.TID 0000.0001) PTRACERS_diffKrNr = /* Vertical Diffusivity */
(PID.TID 0000.0001)    35 @  1.000000000000000E-05              /* K =  1: 35 */
(PID.TID 0000.0001)     ;
(PID.TID 0000.0001) PTRACERS_useGMRedi = /* apply GM-Redi */
(PID.TID 0000.0001)                   F
(PID.TID 0000.0001)     ;
(PID.TID 0000.0001) PTRACERS_useDWNSLP = /* apply DOWN-SLOPE Flow */
(PID.TID 0000.0001)                   F
(PID.TID 0000.0001)     ;
(PID.TID 0000.0001) PTRACERS_useKPP = /* apply KPP scheme */
(PID.TID 0000.0001)                   T
(PID.TID 0000.0001)     ;
(PID.TID 0000.0001) PTRACERS_ref = /* Reference vertical profile */
(PID.TID 0000.0001)    35 @  0.000000000000000E+00              /* K =  1: 35 */
(PID.TID 0000.0001)     ;
(PID.TID 0000.0001) PTRACERS_EvPrRn =/* tracer conc. in Evap. & Rain */
(PID.TID 0000.0001)                 1.234567000000000E+05
(PID.TID 0000.0001)     ;
(PID.TID 0000.0001)  -----------------------------------
(PID.TID 0000.0001)  tracer number :   78
(PID.TID 0000.0001) PTRACERS_names = /* Tracer short name */
(PID.TID 0000.0001)               'n21'
(PID.TID 0000.0001)     ;
(PID.TID 0000.0001) PTRACERS_long_names = /* Tracer long name */
(PID.TID 0000.0001)               ''
(PID.TID 0000.0001)     ;
(PID.TID 0000.0001) PTRACERS_ioLabel = /* tracer IO Label */
(PID.TID 0000.0001)               '78'
(PID.TID 0000.0001)     ;
(PID.TID 0000.0001) PTRACERS_advScheme = /* Advection Scheme */
(PID.TID 0000.0001)                      33
(PID.TID 0000.0001)     ;
(PID.TID 0000.0001) PTRACERS_SOM_Advection = /* tracer uses SOM advection scheme */
(PID.TID 0000.0001)                   F
(PID.TID 0000.0001)     ;
(PID.TID 0000.0001) PTRACERS_ImplVertAdv = /* implicit vert. advection flag */
(PID.TID 0000.0001)                   F
(PID.TID 0000.0001)     ;
(PID.TID 0000.0001) PTRACERS_MultiDimAdv = /* tracer uses Multi-Dim advection */
(PID.TID 0000.0001)                   T
(PID.TID 0000.0001)     ;
(PID.TID 0000.0001) PTRACERS_AdamsBashGtr = /* apply AB on tracer tendency */
(PID.TID 0000.0001)                   F
(PID.TID 0000.0001)     ;
(PID.TID 0000.0001) PTRACERS_AdamsBash_Tr = /* apply AB on passive tracer */
(PID.TID 0000.0001)                   F
(PID.TID 0000.0001)     ;
(PID.TID 0000.0001) PTRACERS_diffKh = /* Laplacian Diffusivity */
(PID.TID 0000.0001)                 0.000000000000000E+00
(PID.TID 0000.0001)     ;
(PID.TID 0000.0001) PTRACERS_diffK4 = /* Biharmonic Diffusivity */
(PID.TID 0000.0001)                 0.000000000000000E+00
(PID.TID 0000.0001)     ;
(PID.TID 0000.0001) PTRACERS_diffKrNr = /* Vertical Diffusivity */
(PID.TID 0000.0001)    35 @  1.000000000000000E-05              /* K =  1: 35 */
(PID.TID 0000.0001)     ;
(PID.TID 0000.0001) PTRACERS_useGMRedi = /* apply GM-Redi */
(PID.TID 0000.0001)                   F
(PID.TID 0000.0001)     ;
(PID.TID 0000.0001) PTRACERS_useDWNSLP = /* apply DOWN-SLOPE Flow */
(PID.TID 0000.0001)                   F
(PID.TID 0000.0001)     ;
(PID.TID 0000.0001) PTRACERS_useKPP = /* apply KPP scheme */
(PID.TID 0000.0001)                   T
(PID.TID 0000.0001)     ;
(PID.TID 0000.0001) PTRACERS_ref = /* Reference vertical profile */
(PID.TID 0000.0001)    35 @  0.000000000000000E+00              /* K =  1: 35 */
(PID.TID 0000.0001)     ;
(PID.TID 0000.0001) PTRACERS_EvPrRn =/* tracer conc. in Evap. & Rain */
(PID.TID 0000.0001)                 1.234567000000000E+05
(PID.TID 0000.0001)     ;
(PID.TID 0000.0001)  -----------------------------------
(PID.TID 0000.0001)  tracer number :   79
(PID.TID 0000.0001) PTRACERS_names = /* Tracer short name */
(PID.TID 0000.0001)               'n22'
(PID.TID 0000.0001)     ;
(PID.TID 0000.0001) PTRACERS_long_names = /* Tracer long name */
(PID.TID 0000.0001)               ''
(PID.TID 0000.0001)     ;
(PID.TID 0000.0001) PTRACERS_ioLabel = /* tracer IO Label */
(PID.TID 0000.0001)               '79'
(PID.TID 0000.0001)     ;
(PID.TID 0000.0001) PTRACERS_advScheme = /* Advection Scheme */
(PID.TID 0000.0001)                      33
(PID.TID 0000.0001)     ;
(PID.TID 0000.0001) PTRACERS_SOM_Advection = /* tracer uses SOM advection scheme */
(PID.TID 0000.0001)                   F
(PID.TID 0000.0001)     ;
(PID.TID 0000.0001) PTRACERS_ImplVertAdv = /* implicit vert. advection flag */
(PID.TID 0000.0001)                   F
(PID.TID 0000.0001)     ;
(PID.TID 0000.0001) PTRACERS_MultiDimAdv = /* tracer uses Multi-Dim advection */
(PID.TID 0000.0001)                   T
(PID.TID 0000.0001)     ;
(PID.TID 0000.0001) PTRACERS_AdamsBashGtr = /* apply AB on tracer tendency */
(PID.TID 0000.0001)                   F
(PID.TID 0000.0001)     ;
(PID.TID 0000.0001) PTRACERS_AdamsBash_Tr = /* apply AB on passive tracer */
(PID.TID 0000.0001)                   F
(PID.TID 0000.0001)     ;
(PID.TID 0000.0001) PTRACERS_diffKh = /* Laplacian Diffusivity */
(PID.TID 0000.0001)                 0.000000000000000E+00
(PID.TID 0000.0001)     ;
(PID.TID 0000.0001) PTRACERS_diffK4 = /* Biharmonic Diffusivity */
(PID.TID 0000.0001)                 0.000000000000000E+00
(PID.TID 0000.0001)     ;
(PID.TID 0000.0001) PTRACERS_diffKrNr = /* Vertical Diffusivity */
(PID.TID 0000.0001)    35 @  1.000000000000000E-05              /* K =  1: 35 */
(PID.TID 0000.0001)     ;
(PID.TID 0000.0001) PTRACERS_useGMRedi = /* apply GM-Redi */
(PID.TID 0000.0001)                   F
(PID.TID 0000.0001)     ;
(PID.TID 0000.0001) PTRACERS_useDWNSLP = /* apply DOWN-SLOPE Flow */
(PID.TID 0000.0001)                   F
(PID.TID 0000.0001)     ;
(PID.TID 0000.0001) PTRACERS_useKPP = /* apply KPP scheme */
(PID.TID 0000.0001)                   T
(PID.TID 0000.0001)     ;
(PID.TID 0000.0001) PTRACERS_ref = /* Reference vertical profile */
(PID.TID 0000.0001)    35 @  0.000000000000000E+00              /* K =  1: 35 */
(PID.TID 0000.0001)     ;
(PID.TID 0000.0001) PTRACERS_EvPrRn =/* tracer conc. in Evap. & Rain */
(PID.TID 0000.0001)                 1.234567000000000E+05
(PID.TID 0000.0001)     ;
(PID.TID 0000.0001)  -----------------------------------
(PID.TID 0000.0001)  tracer number :   80
(PID.TID 0000.0001) PTRACERS_names = /* Tracer short name */
(PID.TID 0000.0001)               'n23'
(PID.TID 0000.0001)     ;
(PID.TID 0000.0001) PTRACERS_long_names = /* Tracer long name */
(PID.TID 0000.0001)               ''
(PID.TID 0000.0001)     ;
(PID.TID 0000.0001) PTRACERS_ioLabel = /* tracer IO Label */
(PID.TID 0000.0001)               '80'
(PID.TID 0000.0001)     ;
(PID.TID 0000.0001) PTRACERS_advScheme = /* Advection Scheme */
(PID.TID 0000.0001)                      33
(PID.TID 0000.0001)     ;
(PID.TID 0000.0001) PTRACERS_SOM_Advection = /* tracer uses SOM advection scheme */
(PID.TID 0000.0001)                   F
(PID.TID 0000.0001)     ;
(PID.TID 0000.0001) PTRACERS_ImplVertAdv = /* implicit vert. advection flag */
(PID.TID 0000.0001)                   F
(PID.TID 0000.0001)     ;
(PID.TID 0000.0001) PTRACERS_MultiDimAdv = /* tracer uses Multi-Dim advection */
(PID.TID 0000.0001)                   T
(PID.TID 0000.0001)     ;
(PID.TID 0000.0001) PTRACERS_AdamsBashGtr = /* apply AB on tracer tendency */
(PID.TID 0000.0001)                   F
(PID.TID 0000.0001)     ;
(PID.TID 0000.0001) PTRACERS_AdamsBash_Tr = /* apply AB on passive tracer */
(PID.TID 0000.0001)                   F
(PID.TID 0000.0001)     ;
(PID.TID 0000.0001) PTRACERS_diffKh = /* Laplacian Diffusivity */
(PID.TID 0000.0001)                 0.000000000000000E+00
(PID.TID 0000.0001)     ;
(PID.TID 0000.0001) PTRACERS_diffK4 = /* Biharmonic Diffusivity */
(PID.TID 0000.0001)                 0.000000000000000E+00
(PID.TID 0000.0001)     ;
(PID.TID 0000.0001) PTRACERS_diffKrNr = /* Vertical Diffusivity */
(PID.TID 0000.0001)    35 @  1.000000000000000E-05              /* K =  1: 35 */
(PID.TID 0000.0001)     ;
(PID.TID 0000.0001) PTRACERS_useGMRedi = /* apply GM-Redi */
(PID.TID 0000.0001)                   F
(PID.TID 0000.0001)     ;
(PID.TID 0000.0001) PTRACERS_useDWNSLP = /* apply DOWN-SLOPE Flow */
(PID.TID 0000.0001)                   F
(PID.TID 0000.0001)     ;
(PID.TID 0000.0001) PTRACERS_useKPP = /* apply KPP scheme */
(PID.TID 0000.0001)                   T
(PID.TID 0000.0001)     ;
(PID.TID 0000.0001) PTRACERS_ref = /* Reference vertical profile */
(PID.TID 0000.0001)    35 @  0.000000000000000E+00              /* K =  1: 35 */
(PID.TID 0000.0001)     ;
(PID.TID 0000.0001) PTRACERS_EvPrRn =/* tracer conc. in Evap. & Rain */
(PID.TID 0000.0001)                 1.234567000000000E+05
(PID.TID 0000.0001)     ;
(PID.TID 0000.0001)  -----------------------------------
(PID.TID 0000.0001)  tracer number :   81
(PID.TID 0000.0001) PTRACERS_names = /* Tracer short name */
(PID.TID 0000.0001)               'n24'
(PID.TID 0000.0001)     ;
(PID.TID 0000.0001) PTRACERS_long_names = /* Tracer long name */
(PID.TID 0000.0001)               ''
(PID.TID 0000.0001)     ;
(PID.TID 0000.0001) PTRACERS_ioLabel = /* tracer IO Label */
(PID.TID 0000.0001)               '81'
(PID.TID 0000.0001)     ;
(PID.TID 0000.0001) PTRACERS_advScheme = /* Advection Scheme */
(PID.TID 0000.0001)                      33
(PID.TID 0000.0001)     ;
(PID.TID 0000.0001) PTRACERS_SOM_Advection = /* tracer uses SOM advection scheme */
(PID.TID 0000.0001)                   F
(PID.TID 0000.0001)     ;
(PID.TID 0000.0001) PTRACERS_ImplVertAdv = /* implicit vert. advection flag */
(PID.TID 0000.0001)                   F
(PID.TID 0000.0001)     ;
(PID.TID 0000.0001) PTRACERS_MultiDimAdv = /* tracer uses Multi-Dim advection */
(PID.TID 0000.0001)                   T
(PID.TID 0000.0001)     ;
(PID.TID 0000.0001) PTRACERS_AdamsBashGtr = /* apply AB on tracer tendency */
(PID.TID 0000.0001)                   F
(PID.TID 0000.0001)     ;
(PID.TID 0000.0001) PTRACERS_AdamsBash_Tr = /* apply AB on passive tracer */
(PID.TID 0000.0001)                   F
(PID.TID 0000.0001)     ;
(PID.TID 0000.0001) PTRACERS_diffKh = /* Laplacian Diffusivity */
(PID.TID 0000.0001)                 0.000000000000000E+00
(PID.TID 0000.0001)     ;
(PID.TID 0000.0001) PTRACERS_diffK4 = /* Biharmonic Diffusivity */
(PID.TID 0000.0001)                 0.000000000000000E+00
(PID.TID 0000.0001)     ;
(PID.TID 0000.0001) PTRACERS_diffKrNr = /* Vertical Diffusivity */
(PID.TID 0000.0001)    35 @  1.000000000000000E-05              /* K =  1: 35 */
(PID.TID 0000.0001)     ;
(PID.TID 0000.0001) PTRACERS_useGMRedi = /* apply GM-Redi */
(PID.TID 0000.0001)                   F
(PID.TID 0000.0001)     ;
(PID.TID 0000.0001) PTRACERS_useDWNSLP = /* apply DOWN-SLOPE Flow */
(PID.TID 0000.0001)                   F
(PID.TID 0000.0001)     ;
(PID.TID 0000.0001) PTRACERS_useKPP = /* apply KPP scheme */
(PID.TID 0000.0001)                   T
(PID.TID 0000.0001)     ;
(PID.TID 0000.0001) PTRACERS_ref = /* Reference vertical profile */
(PID.TID 0000.0001)    35 @  0.000000000000000E+00              /* K =  1: 35 */
(PID.TID 0000.0001)     ;
(PID.TID 0000.0001) PTRACERS_EvPrRn =/* tracer conc. in Evap. & Rain */
(PID.TID 0000.0001)                 1.234567000000000E+05
(PID.TID 0000.0001)     ;
(PID.TID 0000.0001)  -----------------------------------
(PID.TID 0000.0001)  tracer number :   82
(PID.TID 0000.0001) PTRACERS_names = /* Tracer short name */
(PID.TID 0000.0001)               'n25'
(PID.TID 0000.0001)     ;
(PID.TID 0000.0001) PTRACERS_long_names = /* Tracer long name */
(PID.TID 0000.0001)               ''
(PID.TID 0000.0001)     ;
(PID.TID 0000.0001) PTRACERS_ioLabel = /* tracer IO Label */
(PID.TID 0000.0001)               '82'
(PID.TID 0000.0001)     ;
(PID.TID 0000.0001) PTRACERS_advScheme = /* Advection Scheme */
(PID.TID 0000.0001)                      33
(PID.TID 0000.0001)     ;
(PID.TID 0000.0001) PTRACERS_SOM_Advection = /* tracer uses SOM advection scheme */
(PID.TID 0000.0001)                   F
(PID.TID 0000.0001)     ;
(PID.TID 0000.0001) PTRACERS_ImplVertAdv = /* implicit vert. advection flag */
(PID.TID 0000.0001)                   F
(PID.TID 0000.0001)     ;
(PID.TID 0000.0001) PTRACERS_MultiDimAdv = /* tracer uses Multi-Dim advection */
(PID.TID 0000.0001)                   T
(PID.TID 0000.0001)     ;
(PID.TID 0000.0001) PTRACERS_AdamsBashGtr = /* apply AB on tracer tendency */
(PID.TID 0000.0001)                   F
(PID.TID 0000.0001)     ;
(PID.TID 0000.0001) PTRACERS_AdamsBash_Tr = /* apply AB on passive tracer */
(PID.TID 0000.0001)                   F
(PID.TID 0000.0001)     ;
(PID.TID 0000.0001) PTRACERS_diffKh = /* Laplacian Diffusivity */
(PID.TID 0000.0001)                 0.000000000000000E+00
(PID.TID 0000.0001)     ;
(PID.TID 0000.0001) PTRACERS_diffK4 = /* Biharmonic Diffusivity */
(PID.TID 0000.0001)                 0.000000000000000E+00
(PID.TID 0000.0001)     ;
(PID.TID 0000.0001) PTRACERS_diffKrNr = /* Vertical Diffusivity */
(PID.TID 0000.0001)    35 @  1.000000000000000E-05              /* K =  1: 35 */
(PID.TID 0000.0001)     ;
(PID.TID 0000.0001) PTRACERS_useGMRedi = /* apply GM-Redi */
(PID.TID 0000.0001)                   F
(PID.TID 0000.0001)     ;
(PID.TID 0000.0001) PTRACERS_useDWNSLP = /* apply DOWN-SLOPE Flow */
(PID.TID 0000.0001)                   F
(PID.TID 0000.0001)     ;
(PID.TID 0000.0001) PTRACERS_useKPP = /* apply KPP scheme */
(PID.TID 0000.0001)                   T
(PID.TID 0000.0001)     ;
(PID.TID 0000.0001) PTRACERS_ref = /* Reference vertical profile */
(PID.TID 0000.0001)    35 @  0.000000000000000E+00              /* K =  1: 35 */
(PID.TID 0000.0001)     ;
(PID.TID 0000.0001) PTRACERS_EvPrRn =/* tracer conc. in Evap. & Rain */
(PID.TID 0000.0001)                 1.234567000000000E+05
(PID.TID 0000.0001)     ;
(PID.TID 0000.0001)  -----------------------------------
(PID.TID 0000.0001)  tracer number :   83
(PID.TID 0000.0001) PTRACERS_names = /* Tracer short name */
(PID.TID 0000.0001)               'n26'
(PID.TID 0000.0001)     ;
(PID.TID 0000.0001) PTRACERS_long_names = /* Tracer long name */
(PID.TID 0000.0001)               ''
(PID.TID 0000.0001)     ;
(PID.TID 0000.0001) PTRACERS_ioLabel = /* tracer IO Label */
(PID.TID 0000.0001)               '83'
(PID.TID 0000.0001)     ;
(PID.TID 0000.0001) PTRACERS_advScheme = /* Advection Scheme */
(PID.TID 0000.0001)                      33
(PID.TID 0000.0001)     ;
(PID.TID 0000.0001) PTRACERS_SOM_Advection = /* tracer uses SOM advection scheme */
(PID.TID 0000.0001)                   F
(PID.TID 0000.0001)     ;
(PID.TID 0000.0001) PTRACERS_ImplVertAdv = /* implicit vert. advection flag */
(PID.TID 0000.0001)                   F
(PID.TID 0000.0001)     ;
(PID.TID 0000.0001) PTRACERS_MultiDimAdv = /* tracer uses Multi-Dim advection */
(PID.TID 0000.0001)                   T
(PID.TID 0000.0001)     ;
(PID.TID 0000.0001) PTRACERS_AdamsBashGtr = /* apply AB on tracer tendency */
(PID.TID 0000.0001)                   F
(PID.TID 0000.0001)     ;
(PID.TID 0000.0001) PTRACERS_AdamsBash_Tr = /* apply AB on passive tracer */
(PID.TID 0000.0001)                   F
(PID.TID 0000.0001)     ;
(PID.TID 0000.0001) PTRACERS_diffKh = /* Laplacian Diffusivity */
(PID.TID 0000.0001)                 0.000000000000000E+00
(PID.TID 0000.0001)     ;
(PID.TID 0000.0001) PTRACERS_diffK4 = /* Biharmonic Diffusivity */
(PID.TID 0000.0001)                 0.000000000000000E+00
(PID.TID 0000.0001)     ;
(PID.TID 0000.0001) PTRACERS_diffKrNr = /* Vertical Diffusivity */
(PID.TID 0000.0001)    35 @  1.000000000000000E-05              /* K =  1: 35 */
(PID.TID 0000.0001)     ;
(PID.TID 0000.0001) PTRACERS_useGMRedi = /* apply GM-Redi */
(PID.TID 0000.0001)                   F
(PID.TID 0000.0001)     ;
(PID.TID 0000.0001) PTRACERS_useDWNSLP = /* apply DOWN-SLOPE Flow */
(PID.TID 0000.0001)                   F
(PID.TID 0000.0001)     ;
(PID.TID 0000.0001) PTRACERS_useKPP = /* apply KPP scheme */
(PID.TID 0000.0001)                   T
(PID.TID 0000.0001)     ;
(PID.TID 0000.0001) PTRACERS_ref = /* Reference vertical profile */
(PID.TID 0000.0001)    35 @  0.000000000000000E+00              /* K =  1: 35 */
(PID.TID 0000.0001)     ;
(PID.TID 0000.0001) PTRACERS_EvPrRn =/* tracer conc. in Evap. & Rain */
(PID.TID 0000.0001)                 1.234567000000000E+05
(PID.TID 0000.0001)     ;
(PID.TID 0000.0001)  -----------------------------------
(PID.TID 0000.0001)  tracer number :   84
(PID.TID 0000.0001) PTRACERS_names = /* Tracer short name */
(PID.TID 0000.0001)               'n27'
(PID.TID 0000.0001)     ;
(PID.TID 0000.0001) PTRACERS_long_names = /* Tracer long name */
(PID.TID 0000.0001)               ''
(PID.TID 0000.0001)     ;
(PID.TID 0000.0001) PTRACERS_ioLabel = /* tracer IO Label */
(PID.TID 0000.0001)               '84'
(PID.TID 0000.0001)     ;
(PID.TID 0000.0001) PTRACERS_advScheme = /* Advection Scheme */
(PID.TID 0000.0001)                      33
(PID.TID 0000.0001)     ;
(PID.TID 0000.0001) PTRACERS_SOM_Advection = /* tracer uses SOM advection scheme */
(PID.TID 0000.0001)                   F
(PID.TID 0000.0001)     ;
(PID.TID 0000.0001) PTRACERS_ImplVertAdv = /* implicit vert. advection flag */
(PID.TID 0000.0001)                   F
(PID.TID 0000.0001)     ;
(PID.TID 0000.0001) PTRACERS_MultiDimAdv = /* tracer uses Multi-Dim advection */
(PID.TID 0000.0001)                   T
(PID.TID 0000.0001)     ;
(PID.TID 0000.0001) PTRACERS_AdamsBashGtr = /* apply AB on tracer tendency */
(PID.TID 0000.0001)                   F
(PID.TID 0000.0001)     ;
(PID.TID 0000.0001) PTRACERS_AdamsBash_Tr = /* apply AB on passive tracer */
(PID.TID 0000.0001)                   F
(PID.TID 0000.0001)     ;
(PID.TID 0000.0001) PTRACERS_diffKh = /* Laplacian Diffusivity */
(PID.TID 0000.0001)                 0.000000000000000E+00
(PID.TID 0000.0001)     ;
(PID.TID 0000.0001) PTRACERS_diffK4 = /* Biharmonic Diffusivity */
(PID.TID 0000.0001)                 0.000000000000000E+00
(PID.TID 0000.0001)     ;
(PID.TID 0000.0001) PTRACERS_diffKrNr = /* Vertical Diffusivity */
(PID.TID 0000.0001)    35 @  1.000000000000000E-05              /* K =  1: 35 */
(PID.TID 0000.0001)     ;
(PID.TID 0000.0001) PTRACERS_useGMRedi = /* apply GM-Redi */
(PID.TID 0000.0001)                   F
(PID.TID 0000.0001)     ;
(PID.TID 0000.0001) PTRACERS_useDWNSLP = /* apply DOWN-SLOPE Flow */
(PID.TID 0000.0001)                   F
(PID.TID 0000.0001)     ;
(PID.TID 0000.0001) PTRACERS_useKPP = /* apply KPP scheme */
(PID.TID 0000.0001)                   T
(PID.TID 0000.0001)     ;
(PID.TID 0000.0001) PTRACERS_ref = /* Reference vertical profile */
(PID.TID 0000.0001)    35 @  0.000000000000000E+00              /* K =  1: 35 */
(PID.TID 0000.0001)     ;
(PID.TID 0000.0001) PTRACERS_EvPrRn =/* tracer conc. in Evap. & Rain */
(PID.TID 0000.0001)                 1.234567000000000E+05
(PID.TID 0000.0001)     ;
(PID.TID 0000.0001)  -----------------------------------
(PID.TID 0000.0001)  tracer number :   85
(PID.TID 0000.0001) PTRACERS_names = /* Tracer short name */
(PID.TID 0000.0001)               'n28'
(PID.TID 0000.0001)     ;
(PID.TID 0000.0001) PTRACERS_long_names = /* Tracer long name */
(PID.TID 0000.0001)               ''
(PID.TID 0000.0001)     ;
(PID.TID 0000.0001) PTRACERS_ioLabel = /* tracer IO Label */
(PID.TID 0000.0001)               '85'
(PID.TID 0000.0001)     ;
(PID.TID 0000.0001) PTRACERS_advScheme = /* Advection Scheme */
(PID.TID 0000.0001)                      33
(PID.TID 0000.0001)     ;
(PID.TID 0000.0001) PTRACERS_SOM_Advection = /* tracer uses SOM advection scheme */
(PID.TID 0000.0001)                   F
(PID.TID 0000.0001)     ;
(PID.TID 0000.0001) PTRACERS_ImplVertAdv = /* implicit vert. advection flag */
(PID.TID 0000.0001)                   F
(PID.TID 0000.0001)     ;
(PID.TID 0000.0001) PTRACERS_MultiDimAdv = /* tracer uses Multi-Dim advection */
(PID.TID 0000.0001)                   T
(PID.TID 0000.0001)     ;
(PID.TID 0000.0001) PTRACERS_AdamsBashGtr = /* apply AB on tracer tendency */
(PID.TID 0000.0001)                   F
(PID.TID 0000.0001)     ;
(PID.TID 0000.0001) PTRACERS_AdamsBash_Tr = /* apply AB on passive tracer */
(PID.TID 0000.0001)                   F
(PID.TID 0000.0001)     ;
(PID.TID 0000.0001) PTRACERS_diffKh = /* Laplacian Diffusivity */
(PID.TID 0000.0001)                 0.000000000000000E+00
(PID.TID 0000.0001)     ;
(PID.TID 0000.0001) PTRACERS_diffK4 = /* Biharmonic Diffusivity */
(PID.TID 0000.0001)                 0.000000000000000E+00
(PID.TID 0000.0001)     ;
(PID.TID 0000.0001) PTRACERS_diffKrNr = /* Vertical Diffusivity */
(PID.TID 0000.0001)    35 @  1.000000000000000E-05              /* K =  1: 35 */
(PID.TID 0000.0001)     ;
(PID.TID 0000.0001) PTRACERS_useGMRedi = /* apply GM-Redi */
(PID.TID 0000.0001)                   F
(PID.TID 0000.0001)     ;
(PID.TID 0000.0001) PTRACERS_useDWNSLP = /* apply DOWN-SLOPE Flow */
(PID.TID 0000.0001)                   F
(PID.TID 0000.0001)     ;
(PID.TID 0000.0001) PTRACERS_useKPP = /* apply KPP scheme */
(PID.TID 0000.0001)                   T
(PID.TID 0000.0001)     ;
(PID.TID 0000.0001) PTRACERS_ref = /* Reference vertical profile */
(PID.TID 0000.0001)    35 @  0.000000000000000E+00              /* K =  1: 35 */
(PID.TID 0000.0001)     ;
(PID.TID 0000.0001) PTRACERS_EvPrRn =/* tracer conc. in Evap. & Rain */
(PID.TID 0000.0001)                 1.234567000000000E+05
(PID.TID 0000.0001)     ;
(PID.TID 0000.0001)  -----------------------------------
(PID.TID 0000.0001)  tracer number :   86
(PID.TID 0000.0001) PTRACERS_names = /* Tracer short name */
(PID.TID 0000.0001)               'n29'
(PID.TID 0000.0001)     ;
(PID.TID 0000.0001) PTRACERS_long_names = /* Tracer long name */
(PID.TID 0000.0001)               ''
(PID.TID 0000.0001)     ;
(PID.TID 0000.0001) PTRACERS_ioLabel = /* tracer IO Label */
(PID.TID 0000.0001)               '86'
(PID.TID 0000.0001)     ;
(PID.TID 0000.0001) PTRACERS_advScheme = /* Advection Scheme */
(PID.TID 0000.0001)                      33
(PID.TID 0000.0001)     ;
(PID.TID 0000.0001) PTRACERS_SOM_Advection = /* tracer uses SOM advection scheme */
(PID.TID 0000.0001)                   F
(PID.TID 0000.0001)     ;
(PID.TID 0000.0001) PTRACERS_ImplVertAdv = /* implicit vert. advection flag */
(PID.TID 0000.0001)                   F
(PID.TID 0000.0001)     ;
(PID.TID 0000.0001) PTRACERS_MultiDimAdv = /* tracer uses Multi-Dim advection */
(PID.TID 0000.0001)                   T
(PID.TID 0000.0001)     ;
(PID.TID 0000.0001) PTRACERS_AdamsBashGtr = /* apply AB on tracer tendency */
(PID.TID 0000.0001)                   F
(PID.TID 0000.0001)     ;
(PID.TID 0000.0001) PTRACERS_AdamsBash_Tr = /* apply AB on passive tracer */
(PID.TID 0000.0001)                   F
(PID.TID 0000.0001)     ;
(PID.TID 0000.0001) PTRACERS_diffKh = /* Laplacian Diffusivity */
(PID.TID 0000.0001)                 0.000000000000000E+00
(PID.TID 0000.0001)     ;
(PID.TID 0000.0001) PTRACERS_diffK4 = /* Biharmonic Diffusivity */
(PID.TID 0000.0001)                 0.000000000000000E+00
(PID.TID 0000.0001)     ;
(PID.TID 0000.0001) PTRACERS_diffKrNr = /* Vertical Diffusivity */
(PID.TID 0000.0001)    35 @  1.000000000000000E-05              /* K =  1: 35 */
(PID.TID 0000.0001)     ;
(PID.TID 0000.0001) PTRACERS_useGMRedi = /* apply GM-Redi */
(PID.TID 0000.0001)                   F
(PID.TID 0000.0001)     ;
(PID.TID 0000.0001) PTRACERS_useDWNSLP = /* apply DOWN-SLOPE Flow */
(PID.TID 0000.0001)                   F
(PID.TID 0000.0001)     ;
(PID.TID 0000.0001) PTRACERS_useKPP = /* apply KPP scheme */
(PID.TID 0000.0001)                   T
(PID.TID 0000.0001)     ;
(PID.TID 0000.0001) PTRACERS_ref = /* Reference vertical profile */
(PID.TID 0000.0001)    35 @  0.000000000000000E+00              /* K =  1: 35 */
(PID.TID 0000.0001)     ;
(PID.TID 0000.0001) PTRACERS_EvPrRn =/* tracer conc. in Evap. & Rain */
(PID.TID 0000.0001)                 1.234567000000000E+05
(PID.TID 0000.0001)     ;
(PID.TID 0000.0001)  -----------------------------------
(PID.TID 0000.0001)  tracer number :   87
(PID.TID 0000.0001) PTRACERS_names = /* Tracer short name */
(PID.TID 0000.0001)               'n30'
(PID.TID 0000.0001)     ;
(PID.TID 0000.0001) PTRACERS_long_names = /* Tracer long name */
(PID.TID 0000.0001)               ''
(PID.TID 0000.0001)     ;
(PID.TID 0000.0001) PTRACERS_ioLabel = /* tracer IO Label */
(PID.TID 0000.0001)               '87'
(PID.TID 0000.0001)     ;
(PID.TID 0000.0001) PTRACERS_advScheme = /* Advection Scheme */
(PID.TID 0000.0001)                      33
(PID.TID 0000.0001)     ;
(PID.TID 0000.0001) PTRACERS_SOM_Advection = /* tracer uses SOM advection scheme */
(PID.TID 0000.0001)                   F
(PID.TID 0000.0001)     ;
(PID.TID 0000.0001) PTRACERS_ImplVertAdv = /* implicit vert. advection flag */
(PID.TID 0000.0001)                   F
(PID.TID 0000.0001)     ;
(PID.TID 0000.0001) PTRACERS_MultiDimAdv = /* tracer uses Multi-Dim advection */
(PID.TID 0000.0001)                   T
(PID.TID 0000.0001)     ;
(PID.TID 0000.0001) PTRACERS_AdamsBashGtr = /* apply AB on tracer tendency */
(PID.TID 0000.0001)                   F
(PID.TID 0000.0001)     ;
(PID.TID 0000.0001) PTRACERS_AdamsBash_Tr = /* apply AB on passive tracer */
(PID.TID 0000.0001)                   F
(PID.TID 0000.0001)     ;
(PID.TID 0000.0001) PTRACERS_diffKh = /* Laplacian Diffusivity */
(PID.TID 0000.0001)                 0.000000000000000E+00
(PID.TID 0000.0001)     ;
(PID.TID 0000.0001) PTRACERS_diffK4 = /* Biharmonic Diffusivity */
(PID.TID 0000.0001)                 0.000000000000000E+00
(PID.TID 0000.0001)     ;
(PID.TID 0000.0001) PTRACERS_diffKrNr = /* Vertical Diffusivity */
(PID.TID 0000.0001)    35 @  1.000000000000000E-05              /* K =  1: 35 */
(PID.TID 0000.0001)     ;
(PID.TID 0000.0001) PTRACERS_useGMRedi = /* apply GM-Redi */
(PID.TID 0000.0001)                   F
(PID.TID 0000.0001)     ;
(PID.TID 0000.0001) PTRACERS_useDWNSLP = /* apply DOWN-SLOPE Flow */
(PID.TID 0000.0001)                   F
(PID.TID 0000.0001)     ;
(PID.TID 0000.0001) PTRACERS_useKPP = /* apply KPP scheme */
(PID.TID 0000.0001)                   T
(PID.TID 0000.0001)     ;
(PID.TID 0000.0001) PTRACERS_ref = /* Reference vertical profile */
(PID.TID 0000.0001)    35 @  0.000000000000000E+00              /* K =  1: 35 */
(PID.TID 0000.0001)     ;
(PID.TID 0000.0001) PTRACERS_EvPrRn =/* tracer conc. in Evap. & Rain */
(PID.TID 0000.0001)                 1.234567000000000E+05
(PID.TID 0000.0001)     ;
(PID.TID 0000.0001)  -----------------------------------
(PID.TID 0000.0001)  tracer number :   88
(PID.TID 0000.0001) PTRACERS_names = /* Tracer short name */
(PID.TID 0000.0001)               'n31'
(PID.TID 0000.0001)     ;
(PID.TID 0000.0001) PTRACERS_long_names = /* Tracer long name */
(PID.TID 0000.0001)               ''
(PID.TID 0000.0001)     ;
(PID.TID 0000.0001) PTRACERS_ioLabel = /* tracer IO Label */
(PID.TID 0000.0001)               '88'
(PID.TID 0000.0001)     ;
(PID.TID 0000.0001) PTRACERS_advScheme = /* Advection Scheme */
(PID.TID 0000.0001)                      33
(PID.TID 0000.0001)     ;
(PID.TID 0000.0001) PTRACERS_SOM_Advection = /* tracer uses SOM advection scheme */
(PID.TID 0000.0001)                   F
(PID.TID 0000.0001)     ;
(PID.TID 0000.0001) PTRACERS_ImplVertAdv = /* implicit vert. advection flag */
(PID.TID 0000.0001)                   F
(PID.TID 0000.0001)     ;
(PID.TID 0000.0001) PTRACERS_MultiDimAdv = /* tracer uses Multi-Dim advection */
(PID.TID 0000.0001)                   T
(PID.TID 0000.0001)     ;
(PID.TID 0000.0001) PTRACERS_AdamsBashGtr = /* apply AB on tracer tendency */
(PID.TID 0000.0001)                   F
(PID.TID 0000.0001)     ;
(PID.TID 0000.0001) PTRACERS_AdamsBash_Tr = /* apply AB on passive tracer */
(PID.TID 0000.0001)                   F
(PID.TID 0000.0001)     ;
(PID.TID 0000.0001) PTRACERS_diffKh = /* Laplacian Diffusivity */
(PID.TID 0000.0001)                 0.000000000000000E+00
(PID.TID 0000.0001)     ;
(PID.TID 0000.0001) PTRACERS_diffK4 = /* Biharmonic Diffusivity */
(PID.TID 0000.0001)                 0.000000000000000E+00
(PID.TID 0000.0001)     ;
(PID.TID 0000.0001) PTRACERS_diffKrNr = /* Vertical Diffusivity */
(PID.TID 0000.0001)    35 @  1.000000000000000E-05              /* K =  1: 35 */
(PID.TID 0000.0001)     ;
(PID.TID 0000.0001) PTRACERS_useGMRedi = /* apply GM-Redi */
(PID.TID 0000.0001)                   F
(PID.TID 0000.0001)     ;
(PID.TID 0000.0001) PTRACERS_useDWNSLP = /* apply DOWN-SLOPE Flow */
(PID.TID 0000.0001)                   F
(PID.TID 0000.0001)     ;
(PID.TID 0000.0001) PTRACERS_useKPP = /* apply KPP scheme */
(PID.TID 0000.0001)                   T
(PID.TID 0000.0001)     ;
(PID.TID 0000.0001) PTRACERS_ref = /* Reference vertical profile */
(PID.TID 0000.0001)    35 @  0.000000000000000E+00              /* K =  1: 35 */
(PID.TID 0000.0001)     ;
(PID.TID 0000.0001) PTRACERS_EvPrRn =/* tracer conc. in Evap. & Rain */
(PID.TID 0000.0001)                 1.234567000000000E+05
(PID.TID 0000.0001)     ;
(PID.TID 0000.0001)  -----------------------------------
(PID.TID 0000.0001)  tracer number :   89
(PID.TID 0000.0001) PTRACERS_names = /* Tracer short name */
(PID.TID 0000.0001)               'n32'
(PID.TID 0000.0001)     ;
(PID.TID 0000.0001) PTRACERS_long_names = /* Tracer long name */
(PID.TID 0000.0001)               ''
(PID.TID 0000.0001)     ;
(PID.TID 0000.0001) PTRACERS_ioLabel = /* tracer IO Label */
(PID.TID 0000.0001)               '89'
(PID.TID 0000.0001)     ;
(PID.TID 0000.0001) PTRACERS_advScheme = /* Advection Scheme */
(PID.TID 0000.0001)                      33
(PID.TID 0000.0001)     ;
(PID.TID 0000.0001) PTRACERS_SOM_Advection = /* tracer uses SOM advection scheme */
(PID.TID 0000.0001)                   F
(PID.TID 0000.0001)     ;
(PID.TID 0000.0001) PTRACERS_ImplVertAdv = /* implicit vert. advection flag */
(PID.TID 0000.0001)                   F
(PID.TID 0000.0001)     ;
(PID.TID 0000.0001) PTRACERS_MultiDimAdv = /* tracer uses Multi-Dim advection */
(PID.TID 0000.0001)                   T
(PID.TID 0000.0001)     ;
(PID.TID 0000.0001) PTRACERS_AdamsBashGtr = /* apply AB on tracer tendency */
(PID.TID 0000.0001)                   F
(PID.TID 0000.0001)     ;
(PID.TID 0000.0001) PTRACERS_AdamsBash_Tr = /* apply AB on passive tracer */
(PID.TID 0000.0001)                   F
(PID.TID 0000.0001)     ;
(PID.TID 0000.0001) PTRACERS_diffKh = /* Laplacian Diffusivity */
(PID.TID 0000.0001)                 0.000000000000000E+00
(PID.TID 0000.0001)     ;
(PID.TID 0000.0001) PTRACERS_diffK4 = /* Biharmonic Diffusivity */
(PID.TID 0000.0001)                 0.000000000000000E+00
(PID.TID 0000.0001)     ;
(PID.TID 0000.0001) PTRACERS_diffKrNr = /* Vertical Diffusivity */
(PID.TID 0000.0001)    35 @  1.000000000000000E-05              /* K =  1: 35 */
(PID.TID 0000.0001)     ;
(PID.TID 0000.0001) PTRACERS_useGMRedi = /* apply GM-Redi */
(PID.TID 0000.0001)                   F
(PID.TID 0000.0001)     ;
(PID.TID 0000.0001) PTRACERS_useDWNSLP = /* apply DOWN-SLOPE Flow */
(PID.TID 0000.0001)                   F
(PID.TID 0000.0001)     ;
(PID.TID 0000.0001) PTRACERS_useKPP = /* apply KPP scheme */
(PID.TID 0000.0001)                   T
(PID.TID 0000.0001)     ;
(PID.TID 0000.0001) PTRACERS_ref = /* Reference vertical profile */
(PID.TID 0000.0001)    35 @  0.000000000000000E+00              /* K =  1: 35 */
(PID.TID 0000.0001)     ;
(PID.TID 0000.0001) PTRACERS_EvPrRn =/* tracer conc. in Evap. & Rain */
(PID.TID 0000.0001)                 1.234567000000000E+05
(PID.TID 0000.0001)     ;
(PID.TID 0000.0001)  -----------------------------------
(PID.TID 0000.0001)  tracer number :   90
(PID.TID 0000.0001) PTRACERS_names = /* Tracer short name */
(PID.TID 0000.0001)               'n33'
(PID.TID 0000.0001)     ;
(PID.TID 0000.0001) PTRACERS_long_names = /* Tracer long name */
(PID.TID 0000.0001)               ''
(PID.TID 0000.0001)     ;
(PID.TID 0000.0001) PTRACERS_ioLabel = /* tracer IO Label */
(PID.TID 0000.0001)               '90'
(PID.TID 0000.0001)     ;
(PID.TID 0000.0001) PTRACERS_advScheme = /* Advection Scheme */
(PID.TID 0000.0001)                      33
(PID.TID 0000.0001)     ;
(PID.TID 0000.0001) PTRACERS_SOM_Advection = /* tracer uses SOM advection scheme */
(PID.TID 0000.0001)                   F
(PID.TID 0000.0001)     ;
(PID.TID 0000.0001) PTRACERS_ImplVertAdv = /* implicit vert. advection flag */
(PID.TID 0000.0001)                   F
(PID.TID 0000.0001)     ;
(PID.TID 0000.0001) PTRACERS_MultiDimAdv = /* tracer uses Multi-Dim advection */
(PID.TID 0000.0001)                   T
(PID.TID 0000.0001)     ;
(PID.TID 0000.0001) PTRACERS_AdamsBashGtr = /* apply AB on tracer tendency */
(PID.TID 0000.0001)                   F
(PID.TID 0000.0001)     ;
(PID.TID 0000.0001) PTRACERS_AdamsBash_Tr = /* apply AB on passive tracer */
(PID.TID 0000.0001)                   F
(PID.TID 0000.0001)     ;
(PID.TID 0000.0001) PTRACERS_diffKh = /* Laplacian Diffusivity */
(PID.TID 0000.0001)                 0.000000000000000E+00
(PID.TID 0000.0001)     ;
(PID.TID 0000.0001) PTRACERS_diffK4 = /* Biharmonic Diffusivity */
(PID.TID 0000.0001)                 0.000000000000000E+00
(PID.TID 0000.0001)     ;
(PID.TID 0000.0001) PTRACERS_diffKrNr = /* Vertical Diffusivity */
(PID.TID 0000.0001)    35 @  1.000000000000000E-05              /* K =  1: 35 */
(PID.TID 0000.0001)     ;
(PID.TID 0000.0001) PTRACERS_useGMRedi = /* apply GM-Redi */
(PID.TID 0000.0001)                   F
(PID.TID 0000.0001)     ;
(PID.TID 0000.0001) PTRACERS_useDWNSLP = /* apply DOWN-SLOPE Flow */
(PID.TID 0000.0001)                   F
(PID.TID 0000.0001)     ;
(PID.TID 0000.0001) PTRACERS_useKPP = /* apply KPP scheme */
(PID.TID 0000.0001)                   T
(PID.TID 0000.0001)     ;
(PID.TID 0000.0001) PTRACERS_ref = /* Reference vertical profile */
(PID.TID 0000.0001)    35 @  0.000000000000000E+00              /* K =  1: 35 */
(PID.TID 0000.0001)     ;
(PID.TID 0000.0001) PTRACERS_EvPrRn =/* tracer conc. in Evap. & Rain */
(PID.TID 0000.0001)                 1.234567000000000E+05
(PID.TID 0000.0001)     ;
(PID.TID 0000.0001)  -----------------------------------
(PID.TID 0000.0001)  tracer number :   91
(PID.TID 0000.0001) PTRACERS_names = /* Tracer short name */
(PID.TID 0000.0001)               'n34'
(PID.TID 0000.0001)     ;
(PID.TID 0000.0001) PTRACERS_long_names = /* Tracer long name */
(PID.TID 0000.0001)               ''
(PID.TID 0000.0001)     ;
(PID.TID 0000.0001) PTRACERS_ioLabel = /* tracer IO Label */
(PID.TID 0000.0001)               '91'
(PID.TID 0000.0001)     ;
(PID.TID 0000.0001) PTRACERS_advScheme = /* Advection Scheme */
(PID.TID 0000.0001)                      33
(PID.TID 0000.0001)     ;
(PID.TID 0000.0001) PTRACERS_SOM_Advection = /* tracer uses SOM advection scheme */
(PID.TID 0000.0001)                   F
(PID.TID 0000.0001)     ;
(PID.TID 0000.0001) PTRACERS_ImplVertAdv = /* implicit vert. advection flag */
(PID.TID 0000.0001)                   F
(PID.TID 0000.0001)     ;
(PID.TID 0000.0001) PTRACERS_MultiDimAdv = /* tracer uses Multi-Dim advection */
(PID.TID 0000.0001)                   T
(PID.TID 0000.0001)     ;
(PID.TID 0000.0001) PTRACERS_AdamsBashGtr = /* apply AB on tracer tendency */
(PID.TID 0000.0001)                   F
(PID.TID 0000.0001)     ;
(PID.TID 0000.0001) PTRACERS_AdamsBash_Tr = /* apply AB on passive tracer */
(PID.TID 0000.0001)                   F
(PID.TID 0000.0001)     ;
(PID.TID 0000.0001) PTRACERS_diffKh = /* Laplacian Diffusivity */
(PID.TID 0000.0001)                 0.000000000000000E+00
(PID.TID 0000.0001)     ;
(PID.TID 0000.0001) PTRACERS_diffK4 = /* Biharmonic Diffusivity */
(PID.TID 0000.0001)                 0.000000000000000E+00
(PID.TID 0000.0001)     ;
(PID.TID 0000.0001) PTRACERS_diffKrNr = /* Vertical Diffusivity */
(PID.TID 0000.0001)    35 @  1.000000000000000E-05              /* K =  1: 35 */
(PID.TID 0000.0001)     ;
(PID.TID 0000.0001) PTRACERS_useGMRedi = /* apply GM-Redi */
(PID.TID 0000.0001)                   F
(PID.TID 0000.0001)     ;
(PID.TID 0000.0001) PTRACERS_useDWNSLP = /* apply DOWN-SLOPE Flow */
(PID.TID 0000.0001)                   F
(PID.TID 0000.0001)     ;
(PID.TID 0000.0001) PTRACERS_useKPP = /* apply KPP scheme */
(PID.TID 0000.0001)                   T
(PID.TID 0000.0001)     ;
(PID.TID 0000.0001) PTRACERS_ref = /* Reference vertical profile */
(PID.TID 0000.0001)    35 @  0.000000000000000E+00              /* K =  1: 35 */
(PID.TID 0000.0001)     ;
(PID.TID 0000.0001) PTRACERS_EvPrRn =/* tracer conc. in Evap. & Rain */
(PID.TID 0000.0001)                 1.234567000000000E+05
(PID.TID 0000.0001)     ;
(PID.TID 0000.0001)  -----------------------------------
(PID.TID 0000.0001)  tracer number :   92
(PID.TID 0000.0001) PTRACERS_names = /* Tracer short name */
(PID.TID 0000.0001)               'n35'
(PID.TID 0000.0001)     ;
(PID.TID 0000.0001) PTRACERS_long_names = /* Tracer long name */
(PID.TID 0000.0001)               ''
(PID.TID 0000.0001)     ;
(PID.TID 0000.0001) PTRACERS_ioLabel = /* tracer IO Label */
(PID.TID 0000.0001)               '92'
(PID.TID 0000.0001)     ;
(PID.TID 0000.0001) PTRACERS_advScheme = /* Advection Scheme */
(PID.TID 0000.0001)                      33
(PID.TID 0000.0001)     ;
(PID.TID 0000.0001) PTRACERS_SOM_Advection = /* tracer uses SOM advection scheme */
(PID.TID 0000.0001)                   F
(PID.TID 0000.0001)     ;
(PID.TID 0000.0001) PTRACERS_ImplVertAdv = /* implicit vert. advection flag */
(PID.TID 0000.0001)                   F
(PID.TID 0000.0001)     ;
(PID.TID 0000.0001) PTRACERS_MultiDimAdv = /* tracer uses Multi-Dim advection */
(PID.TID 0000.0001)                   T
(PID.TID 0000.0001)     ;
(PID.TID 0000.0001) PTRACERS_AdamsBashGtr = /* apply AB on tracer tendency */
(PID.TID 0000.0001)                   F
(PID.TID 0000.0001)     ;
(PID.TID 0000.0001) PTRACERS_AdamsBash_Tr = /* apply AB on passive tracer */
(PID.TID 0000.0001)                   F
(PID.TID 0000.0001)     ;
(PID.TID 0000.0001) PTRACERS_diffKh = /* Laplacian Diffusivity */
(PID.TID 0000.0001)                 0.000000000000000E+00
(PID.TID 0000.0001)     ;
(PID.TID 0000.0001) PTRACERS_diffK4 = /* Biharmonic Diffusivity */
(PID.TID 0000.0001)                 0.000000000000000E+00
(PID.TID 0000.0001)     ;
(PID.TID 0000.0001) PTRACERS_diffKrNr = /* Vertical Diffusivity */
(PID.TID 0000.0001)    35 @  1.000000000000000E-05              /* K =  1: 35 */
(PID.TID 0000.0001)     ;
(PID.TID 0000.0001) PTRACERS_useGMRedi = /* apply GM-Redi */
(PID.TID 0000.0001)                   F
(PID.TID 0000.0001)     ;
(PID.TID 0000.0001) PTRACERS_useDWNSLP = /* apply DOWN-SLOPE Flow */
(PID.TID 0000.0001)                   F
(PID.TID 0000.0001)     ;
(PID.TID 0000.0001) PTRACERS_useKPP = /* apply KPP scheme */
(PID.TID 0000.0001)                   T
(PID.TID 0000.0001)     ;
(PID.TID 0000.0001) PTRACERS_ref = /* Reference vertical profile */
(PID.TID 0000.0001)    35 @  0.000000000000000E+00              /* K =  1: 35 */
(PID.TID 0000.0001)     ;
(PID.TID 0000.0001) PTRACERS_EvPrRn =/* tracer conc. in Evap. & Rain */
(PID.TID 0000.0001)                 1.234567000000000E+05
(PID.TID 0000.0001)     ;
(PID.TID 0000.0001)  -----------------------------------
(PID.TID 0000.0001)  tracer number :   93
(PID.TID 0000.0001) PTRACERS_names = /* Tracer short name */
(PID.TID 0000.0001)               'n36'
(PID.TID 0000.0001)     ;
(PID.TID 0000.0001) PTRACERS_long_names = /* Tracer long name */
(PID.TID 0000.0001)               ''
(PID.TID 0000.0001)     ;
(PID.TID 0000.0001) PTRACERS_ioLabel = /* tracer IO Label */
(PID.TID 0000.0001)               '93'
(PID.TID 0000.0001)     ;
(PID.TID 0000.0001) PTRACERS_advScheme = /* Advection Scheme */
(PID.TID 0000.0001)                      33
(PID.TID 0000.0001)     ;
(PID.TID 0000.0001) PTRACERS_SOM_Advection = /* tracer uses SOM advection scheme */
(PID.TID 0000.0001)                   F
(PID.TID 0000.0001)     ;
(PID.TID 0000.0001) PTRACERS_ImplVertAdv = /* implicit vert. advection flag */
(PID.TID 0000.0001)                   F
(PID.TID 0000.0001)     ;
(PID.TID 0000.0001) PTRACERS_MultiDimAdv = /* tracer uses Multi-Dim advection */
(PID.TID 0000.0001)                   T
(PID.TID 0000.0001)     ;
(PID.TID 0000.0001) PTRACERS_AdamsBashGtr = /* apply AB on tracer tendency */
(PID.TID 0000.0001)                   F
(PID.TID 0000.0001)     ;
(PID.TID 0000.0001) PTRACERS_AdamsBash_Tr = /* apply AB on passive tracer */
(PID.TID 0000.0001)                   F
(PID.TID 0000.0001)     ;
(PID.TID 0000.0001) PTRACERS_diffKh = /* Laplacian Diffusivity */
(PID.TID 0000.0001)                 0.000000000000000E+00
(PID.TID 0000.0001)     ;
(PID.TID 0000.0001) PTRACERS_diffK4 = /* Biharmonic Diffusivity */
(PID.TID 0000.0001)                 0.000000000000000E+00
(PID.TID 0000.0001)     ;
(PID.TID 0000.0001) PTRACERS_diffKrNr = /* Vertical Diffusivity */
(PID.TID 0000.0001)    35 @  1.000000000000000E-05              /* K =  1: 35 */
(PID.TID 0000.0001)     ;
(PID.TID 0000.0001) PTRACERS_useGMRedi = /* apply GM-Redi */
(PID.TID 0000.0001)                   F
(PID.TID 0000.0001)     ;
(PID.TID 0000.0001) PTRACERS_useDWNSLP = /* apply DOWN-SLOPE Flow */
(PID.TID 0000.0001)                   F
(PID.TID 0000.0001)     ;
(PID.TID 0000.0001) PTRACERS_useKPP = /* apply KPP scheme */
(PID.TID 0000.0001)                   T
(PID.TID 0000.0001)     ;
(PID.TID 0000.0001) PTRACERS_ref = /* Reference vertical profile */
(PID.TID 0000.0001)    35 @  0.000000000000000E+00              /* K =  1: 35 */
(PID.TID 0000.0001)     ;
(PID.TID 0000.0001) PTRACERS_EvPrRn =/* tracer conc. in Evap. & Rain */
(PID.TID 0000.0001)                 1.234567000000000E+05
(PID.TID 0000.0001)     ;
(PID.TID 0000.0001)  -----------------------------------
(PID.TID 0000.0001)  tracer number :   94
(PID.TID 0000.0001) PTRACERS_names = /* Tracer short name */
(PID.TID 0000.0001)               'n37'
(PID.TID 0000.0001)     ;
(PID.TID 0000.0001) PTRACERS_long_names = /* Tracer long name */
(PID.TID 0000.0001)               ''
(PID.TID 0000.0001)     ;
(PID.TID 0000.0001) PTRACERS_ioLabel = /* tracer IO Label */
(PID.TID 0000.0001)               '94'
(PID.TID 0000.0001)     ;
(PID.TID 0000.0001) PTRACERS_advScheme = /* Advection Scheme */
(PID.TID 0000.0001)                      33
(PID.TID 0000.0001)     ;
(PID.TID 0000.0001) PTRACERS_SOM_Advection = /* tracer uses SOM advection scheme */
(PID.TID 0000.0001)                   F
(PID.TID 0000.0001)     ;
(PID.TID 0000.0001) PTRACERS_ImplVertAdv = /* implicit vert. advection flag */
(PID.TID 0000.0001)                   F
(PID.TID 0000.0001)     ;
(PID.TID 0000.0001) PTRACERS_MultiDimAdv = /* tracer uses Multi-Dim advection */
(PID.TID 0000.0001)                   T
(PID.TID 0000.0001)     ;
(PID.TID 0000.0001) PTRACERS_AdamsBashGtr = /* apply AB on tracer tendency */
(PID.TID 0000.0001)                   F
(PID.TID 0000.0001)     ;
(PID.TID 0000.0001) PTRACERS_AdamsBash_Tr = /* apply AB on passive tracer */
(PID.TID 0000.0001)                   F
(PID.TID 0000.0001)     ;
(PID.TID 0000.0001) PTRACERS_diffKh = /* Laplacian Diffusivity */
(PID.TID 0000.0001)                 0.000000000000000E+00
(PID.TID 0000.0001)     ;
(PID.TID 0000.0001) PTRACERS_diffK4 = /* Biharmonic Diffusivity */
(PID.TID 0000.0001)                 0.000000000000000E+00
(PID.TID 0000.0001)     ;
(PID.TID 0000.0001) PTRACERS_diffKrNr = /* Vertical Diffusivity */
(PID.TID 0000.0001)    35 @  1.000000000000000E-05              /* K =  1: 35 */
(PID.TID 0000.0001)     ;
(PID.TID 0000.0001) PTRACERS_useGMRedi = /* apply GM-Redi */
(PID.TID 0000.0001)                   F
(PID.TID 0000.0001)     ;
(PID.TID 0000.0001) PTRACERS_useDWNSLP = /* apply DOWN-SLOPE Flow */
(PID.TID 0000.0001)                   F
(PID.TID 0000.0001)     ;
(PID.TID 0000.0001) PTRACERS_useKPP = /* apply KPP scheme */
(PID.TID 0000.0001)                   T
(PID.TID 0000.0001)     ;
(PID.TID 0000.0001) PTRACERS_ref = /* Reference vertical profile */
(PID.TID 0000.0001)    35 @  0.000000000000000E+00              /* K =  1: 35 */
(PID.TID 0000.0001)     ;
(PID.TID 0000.0001) PTRACERS_EvPrRn =/* tracer conc. in Evap. & Rain */
(PID.TID 0000.0001)                 1.234567000000000E+05
(PID.TID 0000.0001)     ;
(PID.TID 0000.0001)  -----------------------------------
(PID.TID 0000.0001)  tracer number :   95
(PID.TID 0000.0001) PTRACERS_names = /* Tracer short name */
(PID.TID 0000.0001)               'n38'
(PID.TID 0000.0001)     ;
(PID.TID 0000.0001) PTRACERS_long_names = /* Tracer long name */
(PID.TID 0000.0001)               ''
(PID.TID 0000.0001)     ;
(PID.TID 0000.0001) PTRACERS_ioLabel = /* tracer IO Label */
(PID.TID 0000.0001)               '95'
(PID.TID 0000.0001)     ;
(PID.TID 0000.0001) PTRACERS_advScheme = /* Advection Scheme */
(PID.TID 0000.0001)                      33
(PID.TID 0000.0001)     ;
(PID.TID 0000.0001) PTRACERS_SOM_Advection = /* tracer uses SOM advection scheme */
(PID.TID 0000.0001)                   F
(PID.TID 0000.0001)     ;
(PID.TID 0000.0001) PTRACERS_ImplVertAdv = /* implicit vert. advection flag */
(PID.TID 0000.0001)                   F
(PID.TID 0000.0001)     ;
(PID.TID 0000.0001) PTRACERS_MultiDimAdv = /* tracer uses Multi-Dim advection */
(PID.TID 0000.0001)                   T
(PID.TID 0000.0001)     ;
(PID.TID 0000.0001) PTRACERS_AdamsBashGtr = /* apply AB on tracer tendency */
(PID.TID 0000.0001)                   F
(PID.TID 0000.0001)     ;
(PID.TID 0000.0001) PTRACERS_AdamsBash_Tr = /* apply AB on passive tracer */
(PID.TID 0000.0001)                   F
(PID.TID 0000.0001)     ;
(PID.TID 0000.0001) PTRACERS_diffKh = /* Laplacian Diffusivity */
(PID.TID 0000.0001)                 0.000000000000000E+00
(PID.TID 0000.0001)     ;
(PID.TID 0000.0001) PTRACERS_diffK4 = /* Biharmonic Diffusivity */
(PID.TID 0000.0001)                 0.000000000000000E+00
(PID.TID 0000.0001)     ;
(PID.TID 0000.0001) PTRACERS_diffKrNr = /* Vertical Diffusivity */
(PID.TID 0000.0001)    35 @  1.000000000000000E-05              /* K =  1: 35 */
(PID.TID 0000.0001)     ;
(PID.TID 0000.0001) PTRACERS_useGMRedi = /* apply GM-Redi */
(PID.TID 0000.0001)                   F
(PID.TID 0000.0001)     ;
(PID.TID 0000.0001) PTRACERS_useDWNSLP = /* apply DOWN-SLOPE Flow */
(PID.TID 0000.0001)                   F
(PID.TID 0000.0001)     ;
(PID.TID 0000.0001) PTRACERS_useKPP = /* apply KPP scheme */
(PID.TID 0000.0001)                   T
(PID.TID 0000.0001)     ;
(PID.TID 0000.0001) PTRACERS_ref = /* Reference vertical profile */
(PID.TID 0000.0001)    35 @  0.000000000000000E+00              /* K =  1: 35 */
(PID.TID 0000.0001)     ;
(PID.TID 0000.0001) PTRACERS_EvPrRn =/* tracer conc. in Evap. & Rain */
(PID.TID 0000.0001)                 1.234567000000000E+05
(PID.TID 0000.0001)     ;
(PID.TID 0000.0001)  -----------------------------------
(PID.TID 0000.0001)  tracer number :   96
(PID.TID 0000.0001) PTRACERS_names = /* Tracer short name */
(PID.TID 0000.0001)               'p01'
(PID.TID 0000.0001)     ;
(PID.TID 0000.0001) PTRACERS_long_names = /* Tracer long name */
(PID.TID 0000.0001)               ''
(PID.TID 0000.0001)     ;
(PID.TID 0000.0001) PTRACERS_ioLabel = /* tracer IO Label */
(PID.TID 0000.0001)               '96'
(PID.TID 0000.0001)     ;
(PID.TID 0000.0001) PTRACERS_advScheme = /* Advection Scheme */
(PID.TID 0000.0001)                      33
(PID.TID 0000.0001)     ;
(PID.TID 0000.0001) PTRACERS_SOM_Advection = /* tracer uses SOM advection scheme */
(PID.TID 0000.0001)                   F
(PID.TID 0000.0001)     ;
(PID.TID 0000.0001) PTRACERS_ImplVertAdv = /* implicit vert. advection flag */
(PID.TID 0000.0001)                   F
(PID.TID 0000.0001)     ;
(PID.TID 0000.0001) PTRACERS_MultiDimAdv = /* tracer uses Multi-Dim advection */
(PID.TID 0000.0001)                   T
(PID.TID 0000.0001)     ;
(PID.TID 0000.0001) PTRACERS_AdamsBashGtr = /* apply AB on tracer tendency */
(PID.TID 0000.0001)                   F
(PID.TID 0000.0001)     ;
(PID.TID 0000.0001) PTRACERS_AdamsBash_Tr = /* apply AB on passive tracer */
(PID.TID 0000.0001)                   F
(PID.TID 0000.0001)     ;
(PID.TID 0000.0001) PTRACERS_diffKh = /* Laplacian Diffusivity */
(PID.TID 0000.0001)                 0.000000000000000E+00
(PID.TID 0000.0001)     ;
(PID.TID 0000.0001) PTRACERS_diffK4 = /* Biharmonic Diffusivity */
(PID.TID 0000.0001)                 0.000000000000000E+00
(PID.TID 0000.0001)     ;
(PID.TID 0000.0001) PTRACERS_diffKrNr = /* Vertical Diffusivity */
(PID.TID 0000.0001)    35 @  1.000000000000000E-05              /* K =  1: 35 */
(PID.TID 0000.0001)     ;
(PID.TID 0000.0001) PTRACERS_useGMRedi = /* apply GM-Redi */
(PID.TID 0000.0001)                   F
(PID.TID 0000.0001)     ;
(PID.TID 0000.0001) PTRACERS_useDWNSLP = /* apply DOWN-SLOPE Flow */
(PID.TID 0000.0001)                   F
(PID.TID 0000.0001)     ;
(PID.TID 0000.0001) PTRACERS_useKPP = /* apply KPP scheme */
(PID.TID 0000.0001)                   T
(PID.TID 0000.0001)     ;
(PID.TID 0000.0001) PTRACERS_ref = /* Reference vertical profile */
(PID.TID 0000.0001)    35 @  0.000000000000000E+00              /* K =  1: 35 */
(PID.TID 0000.0001)     ;
(PID.TID 0000.0001) PTRACERS_EvPrRn =/* tracer conc. in Evap. & Rain */
(PID.TID 0000.0001)                 1.234567000000000E+05
(PID.TID 0000.0001)     ;
(PID.TID 0000.0001)  -----------------------------------
(PID.TID 0000.0001)  tracer number :   97
(PID.TID 0000.0001) PTRACERS_names = /* Tracer short name */
(PID.TID 0000.0001)               'p02'
(PID.TID 0000.0001)     ;
(PID.TID 0000.0001) PTRACERS_long_names = /* Tracer long name */
(PID.TID 0000.0001)               ''
(PID.TID 0000.0001)     ;
(PID.TID 0000.0001) PTRACERS_ioLabel = /* tracer IO Label */
(PID.TID 0000.0001)               '97'
(PID.TID 0000.0001)     ;
(PID.TID 0000.0001) PTRACERS_advScheme = /* Advection Scheme */
(PID.TID 0000.0001)                      33
(PID.TID 0000.0001)     ;
(PID.TID 0000.0001) PTRACERS_SOM_Advection = /* tracer uses SOM advection scheme */
(PID.TID 0000.0001)                   F
(PID.TID 0000.0001)     ;
(PID.TID 0000.0001) PTRACERS_ImplVertAdv = /* implicit vert. advection flag */
(PID.TID 0000.0001)                   F
(PID.TID 0000.0001)     ;
(PID.TID 0000.0001) PTRACERS_MultiDimAdv = /* tracer uses Multi-Dim advection */
(PID.TID 0000.0001)                   T
(PID.TID 0000.0001)     ;
(PID.TID 0000.0001) PTRACERS_AdamsBashGtr = /* apply AB on tracer tendency */
(PID.TID 0000.0001)                   F
(PID.TID 0000.0001)     ;
(PID.TID 0000.0001) PTRACERS_AdamsBash_Tr = /* apply AB on passive tracer */
(PID.TID 0000.0001)                   F
(PID.TID 0000.0001)     ;
(PID.TID 0000.0001) PTRACERS_diffKh = /* Laplacian Diffusivity */
(PID.TID 0000.0001)                 0.000000000000000E+00
(PID.TID 0000.0001)     ;
(PID.TID 0000.0001) PTRACERS_diffK4 = /* Biharmonic Diffusivity */
(PID.TID 0000.0001)                 0.000000000000000E+00
(PID.TID 0000.0001)     ;
(PID.TID 0000.0001) PTRACERS_diffKrNr = /* Vertical Diffusivity */
(PID.TID 0000.0001)    35 @  1.000000000000000E-05              /* K =  1: 35 */
(PID.TID 0000.0001)     ;
(PID.TID 0000.0001) PTRACERS_useGMRedi = /* apply GM-Redi */
(PID.TID 0000.0001)                   F
(PID.TID 0000.0001)     ;
(PID.TID 0000.0001) PTRACERS_useDWNSLP = /* apply DOWN-SLOPE Flow */
(PID.TID 0000.0001)                   F
(PID.TID 0000.0001)     ;
(PID.TID 0000.0001) PTRACERS_useKPP = /* apply KPP scheme */
(PID.TID 0000.0001)                   T
(PID.TID 0000.0001)     ;
(PID.TID 0000.0001) PTRACERS_ref = /* Reference vertical profile */
(PID.TID 0000.0001)    35 @  0.000000000000000E+00              /* K =  1: 35 */
(PID.TID 0000.0001)     ;
(PID.TID 0000.0001) PTRACERS_EvPrRn =/* tracer conc. in Evap. & Rain */
(PID.TID 0000.0001)                 1.234567000000000E+05
(PID.TID 0000.0001)     ;
(PID.TID 0000.0001)  -----------------------------------
(PID.TID 0000.0001)  tracer number :   98
(PID.TID 0000.0001) PTRACERS_names = /* Tracer short name */
(PID.TID 0000.0001)               'p03'
(PID.TID 0000.0001)     ;
(PID.TID 0000.0001) PTRACERS_long_names = /* Tracer long name */
(PID.TID 0000.0001)               ''
(PID.TID 0000.0001)     ;
(PID.TID 0000.0001) PTRACERS_ioLabel = /* tracer IO Label */
(PID.TID 0000.0001)               '98'
(PID.TID 0000.0001)     ;
(PID.TID 0000.0001) PTRACERS_advScheme = /* Advection Scheme */
(PID.TID 0000.0001)                      33
(PID.TID 0000.0001)     ;
(PID.TID 0000.0001) PTRACERS_SOM_Advection = /* tracer uses SOM advection scheme */
(PID.TID 0000.0001)                   F
(PID.TID 0000.0001)     ;
(PID.TID 0000.0001) PTRACERS_ImplVertAdv = /* implicit vert. advection flag */
(PID.TID 0000.0001)                   F
(PID.TID 0000.0001)     ;
(PID.TID 0000.0001) PTRACERS_MultiDimAdv = /* tracer uses Multi-Dim advection */
(PID.TID 0000.0001)                   T
(PID.TID 0000.0001)     ;
(PID.TID 0000.0001) PTRACERS_AdamsBashGtr = /* apply AB on tracer tendency */
(PID.TID 0000.0001)                   F
(PID.TID 0000.0001)     ;
(PID.TID 0000.0001) PTRACERS_AdamsBash_Tr = /* apply AB on passive tracer */
(PID.TID 0000.0001)                   F
(PID.TID 0000.0001)     ;
(PID.TID 0000.0001) PTRACERS_diffKh = /* Laplacian Diffusivity */
(PID.TID 0000.0001)                 0.000000000000000E+00
(PID.TID 0000.0001)     ;
(PID.TID 0000.0001) PTRACERS_diffK4 = /* Biharmonic Diffusivity */
(PID.TID 0000.0001)                 0.000000000000000E+00
(PID.TID 0000.0001)     ;
(PID.TID 0000.0001) PTRACERS_diffKrNr = /* Vertical Diffusivity */
(PID.TID 0000.0001)    35 @  1.000000000000000E-05              /* K =  1: 35 */
(PID.TID 0000.0001)     ;
(PID.TID 0000.0001) PTRACERS_useGMRedi = /* apply GM-Redi */
(PID.TID 0000.0001)                   F
(PID.TID 0000.0001)     ;
(PID.TID 0000.0001) PTRACERS_useDWNSLP = /* apply DOWN-SLOPE Flow */
(PID.TID 0000.0001)                   F
(PID.TID 0000.0001)     ;
(PID.TID 0000.0001) PTRACERS_useKPP = /* apply KPP scheme */
(PID.TID 0000.0001)                   T
(PID.TID 0000.0001)     ;
(PID.TID 0000.0001) PTRACERS_ref = /* Reference vertical profile */
(PID.TID 0000.0001)    35 @  0.000000000000000E+00              /* K =  1: 35 */
(PID.TID 0000.0001)     ;
(PID.TID 0000.0001) PTRACERS_EvPrRn =/* tracer conc. in Evap. & Rain */
(PID.TID 0000.0001)                 1.234567000000000E+05
(PID.TID 0000.0001)     ;
(PID.TID 0000.0001)  -----------------------------------
(PID.TID 0000.0001)  tracer number :   99
(PID.TID 0000.0001) PTRACERS_names = /* Tracer short name */
(PID.TID 0000.0001)               'p04'
(PID.TID 0000.0001)     ;
(PID.TID 0000.0001) PTRACERS_long_names = /* Tracer long name */
(PID.TID 0000.0001)               ''
(PID.TID 0000.0001)     ;
(PID.TID 0000.0001) PTRACERS_ioLabel = /* tracer IO Label */
(PID.TID 0000.0001)               '99'
(PID.TID 0000.0001)     ;
(PID.TID 0000.0001) PTRACERS_advScheme = /* Advection Scheme */
(PID.TID 0000.0001)                      33
(PID.TID 0000.0001)     ;
(PID.TID 0000.0001) PTRACERS_SOM_Advection = /* tracer uses SOM advection scheme */
(PID.TID 0000.0001)                   F
(PID.TID 0000.0001)     ;
(PID.TID 0000.0001) PTRACERS_ImplVertAdv = /* implicit vert. advection flag */
(PID.TID 0000.0001)                   F
(PID.TID 0000.0001)     ;
(PID.TID 0000.0001) PTRACERS_MultiDimAdv = /* tracer uses Multi-Dim advection */
(PID.TID 0000.0001)                   T
(PID.TID 0000.0001)     ;
(PID.TID 0000.0001) PTRACERS_AdamsBashGtr = /* apply AB on tracer tendency */
(PID.TID 0000.0001)                   F
(PID.TID 0000.0001)     ;
(PID.TID 0000.0001) PTRACERS_AdamsBash_Tr = /* apply AB on passive tracer */
(PID.TID 0000.0001)                   F
(PID.TID 0000.0001)     ;
(PID.TID 0000.0001) PTRACERS_diffKh = /* Laplacian Diffusivity */
(PID.TID 0000.0001)                 0.000000000000000E+00
(PID.TID 0000.0001)     ;
(PID.TID 0000.0001) PTRACERS_diffK4 = /* Biharmonic Diffusivity */
(PID.TID 0000.0001)                 0.000000000000000E+00
(PID.TID 0000.0001)     ;
(PID.TID 0000.0001) PTRACERS_diffKrNr = /* Vertical Diffusivity */
(PID.TID 0000.0001)    35 @  1.000000000000000E-05              /* K =  1: 35 */
(PID.TID 0000.0001)     ;
(PID.TID 0000.0001) PTRACERS_useGMRedi = /* apply GM-Redi */
(PID.TID 0000.0001)                   F
(PID.TID 0000.0001)     ;
(PID.TID 0000.0001) PTRACERS_useDWNSLP = /* apply DOWN-SLOPE Flow */
(PID.TID 0000.0001)                   F
(PID.TID 0000.0001)     ;
(PID.TID 0000.0001) PTRACERS_useKPP = /* apply KPP scheme */
(PID.TID 0000.0001)                   T
(PID.TID 0000.0001)     ;
(PID.TID 0000.0001) PTRACERS_ref = /* Reference vertical profile */
(PID.TID 0000.0001)    35 @  0.000000000000000E+00              /* K =  1: 35 */
(PID.TID 0000.0001)     ;
(PID.TID 0000.0001) PTRACERS_EvPrRn =/* tracer conc. in Evap. & Rain */
(PID.TID 0000.0001)                 1.234567000000000E+05
(PID.TID 0000.0001)     ;
(PID.TID 0000.0001)  -----------------------------------
(PID.TID 0000.0001)  tracer number :  100
(PID.TID 0000.0001) PTRACERS_names = /* Tracer short name */
(PID.TID 0000.0001)               'p05'
(PID.TID 0000.0001)     ;
(PID.TID 0000.0001) PTRACERS_long_names = /* Tracer long name */
(PID.TID 0000.0001)               ''
(PID.TID 0000.0001)     ;
(PID.TID 0000.0001) PTRACERS_ioLabel = /* tracer IO Label */
(PID.TID 0000.0001)               '0a'
(PID.TID 0000.0001)     ;
(PID.TID 0000.0001) PTRACERS_advScheme = /* Advection Scheme */
(PID.TID 0000.0001)                      33
(PID.TID 0000.0001)     ;
(PID.TID 0000.0001) PTRACERS_SOM_Advection = /* tracer uses SOM advection scheme */
(PID.TID 0000.0001)                   F
(PID.TID 0000.0001)     ;
(PID.TID 0000.0001) PTRACERS_ImplVertAdv = /* implicit vert. advection flag */
(PID.TID 0000.0001)                   F
(PID.TID 0000.0001)     ;
(PID.TID 0000.0001) PTRACERS_MultiDimAdv = /* tracer uses Multi-Dim advection */
(PID.TID 0000.0001)                   T
(PID.TID 0000.0001)     ;
(PID.TID 0000.0001) PTRACERS_AdamsBashGtr = /* apply AB on tracer tendency */
(PID.TID 0000.0001)                   F
(PID.TID 0000.0001)     ;
(PID.TID 0000.0001) PTRACERS_AdamsBash_Tr = /* apply AB on passive tracer */
(PID.TID 0000.0001)                   F
(PID.TID 0000.0001)     ;
(PID.TID 0000.0001) PTRACERS_diffKh = /* Laplacian Diffusivity */
(PID.TID 0000.0001)                 0.000000000000000E+00
(PID.TID 0000.0001)     ;
(PID.TID 0000.0001) PTRACERS_diffK4 = /* Biharmonic Diffusivity */
(PID.TID 0000.0001)                 0.000000000000000E+00
(PID.TID 0000.0001)     ;
(PID.TID 0000.0001) PTRACERS_diffKrNr = /* Vertical Diffusivity */
(PID.TID 0000.0001)    35 @  1.000000000000000E-05              /* K =  1: 35 */
(PID.TID 0000.0001)     ;
(PID.TID 0000.0001) PTRACERS_useGMRedi = /* apply GM-Redi */
(PID.TID 0000.0001)                   F
(PID.TID 0000.0001)     ;
(PID.TID 0000.0001) PTRACERS_useDWNSLP = /* apply DOWN-SLOPE Flow */
(PID.TID 0000.0001)                   F
(PID.TID 0000.0001)     ;
(PID.TID 0000.0001) PTRACERS_useKPP = /* apply KPP scheme */
(PID.TID 0000.0001)                   T
(PID.TID 0000.0001)     ;
(PID.TID 0000.0001) PTRACERS_ref = /* Reference vertical profile */
(PID.TID 0000.0001)    35 @  0.000000000000000E+00              /* K =  1: 35 */
(PID.TID 0000.0001)     ;
(PID.TID 0000.0001) PTRACERS_EvPrRn =/* tracer conc. in Evap. & Rain */
(PID.TID 0000.0001)                 1.234567000000000E+05
(PID.TID 0000.0001)     ;
(PID.TID 0000.0001)  -----------------------------------
(PID.TID 0000.0001)  tracer number :  101
(PID.TID 0000.0001) PTRACERS_names = /* Tracer short name */
(PID.TID 0000.0001)               'p06'
(PID.TID 0000.0001)     ;
(PID.TID 0000.0001) PTRACERS_long_names = /* Tracer long name */
(PID.TID 0000.0001)               ''
(PID.TID 0000.0001)     ;
(PID.TID 0000.0001) PTRACERS_ioLabel = /* tracer IO Label */
(PID.TID 0000.0001)               '0b'
(PID.TID 0000.0001)     ;
(PID.TID 0000.0001) PTRACERS_advScheme = /* Advection Scheme */
(PID.TID 0000.0001)                      33
(PID.TID 0000.0001)     ;
(PID.TID 0000.0001) PTRACERS_SOM_Advection = /* tracer uses SOM advection scheme */
(PID.TID 0000.0001)                   F
(PID.TID 0000.0001)     ;
(PID.TID 0000.0001) PTRACERS_ImplVertAdv = /* implicit vert. advection flag */
(PID.TID 0000.0001)                   F
(PID.TID 0000.0001)     ;
(PID.TID 0000.0001) PTRACERS_MultiDimAdv = /* tracer uses Multi-Dim advection */
(PID.TID 0000.0001)                   T
(PID.TID 0000.0001)     ;
(PID.TID 0000.0001) PTRACERS_AdamsBashGtr = /* apply AB on tracer tendency */
(PID.TID 0000.0001)                   F
(PID.TID 0000.0001)     ;
(PID.TID 0000.0001) PTRACERS_AdamsBash_Tr = /* apply AB on passive tracer */
(PID.TID 0000.0001)                   F
(PID.TID 0000.0001)     ;
(PID.TID 0000.0001) PTRACERS_diffKh = /* Laplacian Diffusivity */
(PID.TID 0000.0001)                 0.000000000000000E+00
(PID.TID 0000.0001)     ;
(PID.TID 0000.0001) PTRACERS_diffK4 = /* Biharmonic Diffusivity */
(PID.TID 0000.0001)                 0.000000000000000E+00
(PID.TID 0000.0001)     ;
(PID.TID 0000.0001) PTRACERS_diffKrNr = /* Vertical Diffusivity */
(PID.TID 0000.0001)    35 @  1.000000000000000E-05              /* K =  1: 35 */
(PID.TID 0000.0001)     ;
(PID.TID 0000.0001) PTRACERS_useGMRedi = /* apply GM-Redi */
(PID.TID 0000.0001)                   F
(PID.TID 0000.0001)     ;
(PID.TID 0000.0001) PTRACERS_useDWNSLP = /* apply DOWN-SLOPE Flow */
(PID.TID 0000.0001)                   F
(PID.TID 0000.0001)     ;
(PID.TID 0000.0001) PTRACERS_useKPP = /* apply KPP scheme */
(PID.TID 0000.0001)                   T
(PID.TID 0000.0001)     ;
(PID.TID 0000.0001) PTRACERS_ref = /* Reference vertical profile */
(PID.TID 0000.0001)    35 @  0.000000000000000E+00              /* K =  1: 35 */
(PID.TID 0000.0001)     ;
(PID.TID 0000.0001) PTRACERS_EvPrRn =/* tracer conc. in Evap. & Rain */
(PID.TID 0000.0001)                 1.234567000000000E+05
(PID.TID 0000.0001)     ;
(PID.TID 0000.0001)  -----------------------------------
(PID.TID 0000.0001)  tracer number :  102
(PID.TID 0000.0001) PTRACERS_names = /* Tracer short name */
(PID.TID 0000.0001)               'p07'
(PID.TID 0000.0001)     ;
(PID.TID 0000.0001) PTRACERS_long_names = /* Tracer long name */
(PID.TID 0000.0001)               ''
(PID.TID 0000.0001)     ;
(PID.TID 0000.0001) PTRACERS_ioLabel = /* tracer IO Label */
(PID.TID 0000.0001)               '0c'
(PID.TID 0000.0001)     ;
(PID.TID 0000.0001) PTRACERS_advScheme = /* Advection Scheme */
(PID.TID 0000.0001)                      33
(PID.TID 0000.0001)     ;
(PID.TID 0000.0001) PTRACERS_SOM_Advection = /* tracer uses SOM advection scheme */
(PID.TID 0000.0001)                   F
(PID.TID 0000.0001)     ;
(PID.TID 0000.0001) PTRACERS_ImplVertAdv = /* implicit vert. advection flag */
(PID.TID 0000.0001)                   F
(PID.TID 0000.0001)     ;
(PID.TID 0000.0001) PTRACERS_MultiDimAdv = /* tracer uses Multi-Dim advection */
(PID.TID 0000.0001)                   T
(PID.TID 0000.0001)     ;
(PID.TID 0000.0001) PTRACERS_AdamsBashGtr = /* apply AB on tracer tendency */
(PID.TID 0000.0001)                   F
(PID.TID 0000.0001)     ;
(PID.TID 0000.0001) PTRACERS_AdamsBash_Tr = /* apply AB on passive tracer */
(PID.TID 0000.0001)                   F
(PID.TID 0000.0001)     ;
(PID.TID 0000.0001) PTRACERS_diffKh = /* Laplacian Diffusivity */
(PID.TID 0000.0001)                 0.000000000000000E+00
(PID.TID 0000.0001)     ;
(PID.TID 0000.0001) PTRACERS_diffK4 = /* Biharmonic Diffusivity */
(PID.TID 0000.0001)                 0.000000000000000E+00
(PID.TID 0000.0001)     ;
(PID.TID 0000.0001) PTRACERS_diffKrNr = /* Vertical Diffusivity */
(PID.TID 0000.0001)    35 @  1.000000000000000E-05              /* K =  1: 35 */
(PID.TID 0000.0001)     ;
(PID.TID 0000.0001) PTRACERS_useGMRedi = /* apply GM-Redi */
(PID.TID 0000.0001)                   F
(PID.TID 0000.0001)     ;
(PID.TID 0000.0001) PTRACERS_useDWNSLP = /* apply DOWN-SLOPE Flow */
(PID.TID 0000.0001)                   F
(PID.TID 0000.0001)     ;
(PID.TID 0000.0001) PTRACERS_useKPP = /* apply KPP scheme */
(PID.TID 0000.0001)                   T
(PID.TID 0000.0001)     ;
(PID.TID 0000.0001) PTRACERS_ref = /* Reference vertical profile */
(PID.TID 0000.0001)    35 @  0.000000000000000E+00              /* K =  1: 35 */
(PID.TID 0000.0001)     ;
(PID.TID 0000.0001) PTRACERS_EvPrRn =/* tracer conc. in Evap. & Rain */
(PID.TID 0000.0001)                 1.234567000000000E+05
(PID.TID 0000.0001)     ;
(PID.TID 0000.0001)  -----------------------------------
(PID.TID 0000.0001)  tracer number :  103
(PID.TID 0000.0001) PTRACERS_names = /* Tracer short name */
(PID.TID 0000.0001)               'p08'
(PID.TID 0000.0001)     ;
(PID.TID 0000.0001) PTRACERS_long_names = /* Tracer long name */
(PID.TID 0000.0001)               ''
(PID.TID 0000.0001)     ;
(PID.TID 0000.0001) PTRACERS_ioLabel = /* tracer IO Label */
(PID.TID 0000.0001)               '0d'
(PID.TID 0000.0001)     ;
(PID.TID 0000.0001) PTRACERS_advScheme = /* Advection Scheme */
(PID.TID 0000.0001)                      33
(PID.TID 0000.0001)     ;
(PID.TID 0000.0001) PTRACERS_SOM_Advection = /* tracer uses SOM advection scheme */
(PID.TID 0000.0001)                   F
(PID.TID 0000.0001)     ;
(PID.TID 0000.0001) PTRACERS_ImplVertAdv = /* implicit vert. advection flag */
(PID.TID 0000.0001)                   F
(PID.TID 0000.0001)     ;
(PID.TID 0000.0001) PTRACERS_MultiDimAdv = /* tracer uses Multi-Dim advection */
(PID.TID 0000.0001)                   T
(PID.TID 0000.0001)     ;
(PID.TID 0000.0001) PTRACERS_AdamsBashGtr = /* apply AB on tracer tendency */
(PID.TID 0000.0001)                   F
(PID.TID 0000.0001)     ;
(PID.TID 0000.0001) PTRACERS_AdamsBash_Tr = /* apply AB on passive tracer */
(PID.TID 0000.0001)                   F
(PID.TID 0000.0001)     ;
(PID.TID 0000.0001) PTRACERS_diffKh = /* Laplacian Diffusivity */
(PID.TID 0000.0001)                 0.000000000000000E+00
(PID.TID 0000.0001)     ;
(PID.TID 0000.0001) PTRACERS_diffK4 = /* Biharmonic Diffusivity */
(PID.TID 0000.0001)                 0.000000000000000E+00
(PID.TID 0000.0001)     ;
(PID.TID 0000.0001) PTRACERS_diffKrNr = /* Vertical Diffusivity */
(PID.TID 0000.0001)    35 @  1.000000000000000E-05              /* K =  1: 35 */
(PID.TID 0000.0001)     ;
(PID.TID 0000.0001) PTRACERS_useGMRedi = /* apply GM-Redi */
(PID.TID 0000.0001)                   F
(PID.TID 0000.0001)     ;
(PID.TID 0000.0001) PTRACERS_useDWNSLP = /* apply DOWN-SLOPE Flow */
(PID.TID 0000.0001)                   F
(PID.TID 0000.0001)     ;
(PID.TID 0000.0001) PTRACERS_useKPP = /* apply KPP scheme */
(PID.TID 0000.0001)                   T
(PID.TID 0000.0001)     ;
(PID.TID 0000.0001) PTRACERS_ref = /* Reference vertical profile */
(PID.TID 0000.0001)    35 @  0.000000000000000E+00              /* K =  1: 35 */
(PID.TID 0000.0001)     ;
(PID.TID 0000.0001) PTRACERS_EvPrRn =/* tracer conc. in Evap. & Rain */
(PID.TID 0000.0001)                 1.234567000000000E+05
(PID.TID 0000.0001)     ;
(PID.TID 0000.0001)  -----------------------------------
(PID.TID 0000.0001)  tracer number :  104
(PID.TID 0000.0001) PTRACERS_names = /* Tracer short name */
(PID.TID 0000.0001)               'p09'
(PID.TID 0000.0001)     ;
(PID.TID 0000.0001) PTRACERS_long_names = /* Tracer long name */
(PID.TID 0000.0001)               ''
(PID.TID 0000.0001)     ;
(PID.TID 0000.0001) PTRACERS_ioLabel = /* tracer IO Label */
(PID.TID 0000.0001)               '0e'
(PID.TID 0000.0001)     ;
(PID.TID 0000.0001) PTRACERS_advScheme = /* Advection Scheme */
(PID.TID 0000.0001)                      33
(PID.TID 0000.0001)     ;
(PID.TID 0000.0001) PTRACERS_SOM_Advection = /* tracer uses SOM advection scheme */
(PID.TID 0000.0001)                   F
(PID.TID 0000.0001)     ;
(PID.TID 0000.0001) PTRACERS_ImplVertAdv = /* implicit vert. advection flag */
(PID.TID 0000.0001)                   F
(PID.TID 0000.0001)     ;
(PID.TID 0000.0001) PTRACERS_MultiDimAdv = /* tracer uses Multi-Dim advection */
(PID.TID 0000.0001)                   T
(PID.TID 0000.0001)     ;
(PID.TID 0000.0001) PTRACERS_AdamsBashGtr = /* apply AB on tracer tendency */
(PID.TID 0000.0001)                   F
(PID.TID 0000.0001)     ;
(PID.TID 0000.0001) PTRACERS_AdamsBash_Tr = /* apply AB on passive tracer */
(PID.TID 0000.0001)                   F
(PID.TID 0000.0001)     ;
(PID.TID 0000.0001) PTRACERS_diffKh = /* Laplacian Diffusivity */
(PID.TID 0000.0001)                 0.000000000000000E+00
(PID.TID 0000.0001)     ;
(PID.TID 0000.0001) PTRACERS_diffK4 = /* Biharmonic Diffusivity */
(PID.TID 0000.0001)                 0.000000000000000E+00
(PID.TID 0000.0001)     ;
(PID.TID 0000.0001) PTRACERS_diffKrNr = /* Vertical Diffusivity */
(PID.TID 0000.0001)    35 @  1.000000000000000E-05              /* K =  1: 35 */
(PID.TID 0000.0001)     ;
(PID.TID 0000.0001) PTRACERS_useGMRedi = /* apply GM-Redi */
(PID.TID 0000.0001)                   F
(PID.TID 0000.0001)     ;
(PID.TID 0000.0001) PTRACERS_useDWNSLP = /* apply DOWN-SLOPE Flow */
(PID.TID 0000.0001)                   F
(PID.TID 0000.0001)     ;
(PID.TID 0000.0001) PTRACERS_useKPP = /* apply KPP scheme */
(PID.TID 0000.0001)                   T
(PID.TID 0000.0001)     ;
(PID.TID 0000.0001) PTRACERS_ref = /* Reference vertical profile */
(PID.TID 0000.0001)    35 @  0.000000000000000E+00              /* K =  1: 35 */
(PID.TID 0000.0001)     ;
(PID.TID 0000.0001) PTRACERS_EvPrRn =/* tracer conc. in Evap. & Rain */
(PID.TID 0000.0001)                 1.234567000000000E+05
(PID.TID 0000.0001)     ;
(PID.TID 0000.0001)  -----------------------------------
(PID.TID 0000.0001)  tracer number :  105
(PID.TID 0000.0001) PTRACERS_names = /* Tracer short name */
(PID.TID 0000.0001)               'p10'
(PID.TID 0000.0001)     ;
(PID.TID 0000.0001) PTRACERS_long_names = /* Tracer long name */
(PID.TID 0000.0001)               ''
(PID.TID 0000.0001)     ;
(PID.TID 0000.0001) PTRACERS_ioLabel = /* tracer IO Label */
(PID.TID 0000.0001)               '0f'
(PID.TID 0000.0001)     ;
(PID.TID 0000.0001) PTRACERS_advScheme = /* Advection Scheme */
(PID.TID 0000.0001)                      33
(PID.TID 0000.0001)     ;
(PID.TID 0000.0001) PTRACERS_SOM_Advection = /* tracer uses SOM advection scheme */
(PID.TID 0000.0001)                   F
(PID.TID 0000.0001)     ;
(PID.TID 0000.0001) PTRACERS_ImplVertAdv = /* implicit vert. advection flag */
(PID.TID 0000.0001)                   F
(PID.TID 0000.0001)     ;
(PID.TID 0000.0001) PTRACERS_MultiDimAdv = /* tracer uses Multi-Dim advection */
(PID.TID 0000.0001)                   T
(PID.TID 0000.0001)     ;
(PID.TID 0000.0001) PTRACERS_AdamsBashGtr = /* apply AB on tracer tendency */
(PID.TID 0000.0001)                   F
(PID.TID 0000.0001)     ;
(PID.TID 0000.0001) PTRACERS_AdamsBash_Tr = /* apply AB on passive tracer */
(PID.TID 0000.0001)                   F
(PID.TID 0000.0001)     ;
(PID.TID 0000.0001) PTRACERS_diffKh = /* Laplacian Diffusivity */
(PID.TID 0000.0001)                 0.000000000000000E+00
(PID.TID 0000.0001)     ;
(PID.TID 0000.0001) PTRACERS_diffK4 = /* Biharmonic Diffusivity */
(PID.TID 0000.0001)                 0.000000000000000E+00
(PID.TID 0000.0001)     ;
(PID.TID 0000.0001) PTRACERS_diffKrNr = /* Vertical Diffusivity */
(PID.TID 0000.0001)    35 @  1.000000000000000E-05              /* K =  1: 35 */
(PID.TID 0000.0001)     ;
(PID.TID 0000.0001) PTRACERS_useGMRedi = /* apply GM-Redi */
(PID.TID 0000.0001)                   F
(PID.TID 0000.0001)     ;
(PID.TID 0000.0001) PTRACERS_useDWNSLP = /* apply DOWN-SLOPE Flow */
(PID.TID 0000.0001)                   F
(PID.TID 0000.0001)     ;
(PID.TID 0000.0001) PTRACERS_useKPP = /* apply KPP scheme */
(PID.TID 0000.0001)                   T
(PID.TID 0000.0001)     ;
(PID.TID 0000.0001) PTRACERS_ref = /* Reference vertical profile */
(PID.TID 0000.0001)    35 @  0.000000000000000E+00              /* K =  1: 35 */
(PID.TID 0000.0001)     ;
(PID.TID 0000.0001) PTRACERS_EvPrRn =/* tracer conc. in Evap. & Rain */
(PID.TID 0000.0001)                 1.234567000000000E+05
(PID.TID 0000.0001)     ;
(PID.TID 0000.0001)  -----------------------------------
(PID.TID 0000.0001)  tracer number :  106
(PID.TID 0000.0001) PTRACERS_names = /* Tracer short name */
(PID.TID 0000.0001)               'p11'
(PID.TID 0000.0001)     ;
(PID.TID 0000.0001) PTRACERS_long_names = /* Tracer long name */
(PID.TID 0000.0001)               ''
(PID.TID 0000.0001)     ;
(PID.TID 0000.0001) PTRACERS_ioLabel = /* tracer IO Label */
(PID.TID 0000.0001)               '0g'
(PID.TID 0000.0001)     ;
(PID.TID 0000.0001) PTRACERS_advScheme = /* Advection Scheme */
(PID.TID 0000.0001)                      33
(PID.TID 0000.0001)     ;
(PID.TID 0000.0001) PTRACERS_SOM_Advection = /* tracer uses SOM advection scheme */
(PID.TID 0000.0001)                   F
(PID.TID 0000.0001)     ;
(PID.TID 0000.0001) PTRACERS_ImplVertAdv = /* implicit vert. advection flag */
(PID.TID 0000.0001)                   F
(PID.TID 0000.0001)     ;
(PID.TID 0000.0001) PTRACERS_MultiDimAdv = /* tracer uses Multi-Dim advection */
(PID.TID 0000.0001)                   T
(PID.TID 0000.0001)     ;
(PID.TID 0000.0001) PTRACERS_AdamsBashGtr = /* apply AB on tracer tendency */
(PID.TID 0000.0001)                   F
(PID.TID 0000.0001)     ;
(PID.TID 0000.0001) PTRACERS_AdamsBash_Tr = /* apply AB on passive tracer */
(PID.TID 0000.0001)                   F
(PID.TID 0000.0001)     ;
(PID.TID 0000.0001) PTRACERS_diffKh = /* Laplacian Diffusivity */
(PID.TID 0000.0001)                 0.000000000000000E+00
(PID.TID 0000.0001)     ;
(PID.TID 0000.0001) PTRACERS_diffK4 = /* Biharmonic Diffusivity */
(PID.TID 0000.0001)                 0.000000000000000E+00
(PID.TID 0000.0001)     ;
(PID.TID 0000.0001) PTRACERS_diffKrNr = /* Vertical Diffusivity */
(PID.TID 0000.0001)    35 @  1.000000000000000E-05              /* K =  1: 35 */
(PID.TID 0000.0001)     ;
(PID.TID 0000.0001) PTRACERS_useGMRedi = /* apply GM-Redi */
(PID.TID 0000.0001)                   F
(PID.TID 0000.0001)     ;
(PID.TID 0000.0001) PTRACERS_useDWNSLP = /* apply DOWN-SLOPE Flow */
(PID.TID 0000.0001)                   F
(PID.TID 0000.0001)     ;
(PID.TID 0000.0001) PTRACERS_useKPP = /* apply KPP scheme */
(PID.TID 0000.0001)                   T
(PID.TID 0000.0001)     ;
(PID.TID 0000.0001) PTRACERS_ref = /* Reference vertical profile */
(PID.TID 0000.0001)    35 @  0.000000000000000E+00              /* K =  1: 35 */
(PID.TID 0000.0001)     ;
(PID.TID 0000.0001) PTRACERS_EvPrRn =/* tracer conc. in Evap. & Rain */
(PID.TID 0000.0001)                 1.234567000000000E+05
(PID.TID 0000.0001)     ;
(PID.TID 0000.0001)  -----------------------------------
(PID.TID 0000.0001)  tracer number :  107
(PID.TID 0000.0001) PTRACERS_names = /* Tracer short name */
(PID.TID 0000.0001)               'p12'
(PID.TID 0000.0001)     ;
(PID.TID 0000.0001) PTRACERS_long_names = /* Tracer long name */
(PID.TID 0000.0001)               ''
(PID.TID 0000.0001)     ;
(PID.TID 0000.0001) PTRACERS_ioLabel = /* tracer IO Label */
(PID.TID 0000.0001)               '0h'
(PID.TID 0000.0001)     ;
(PID.TID 0000.0001) PTRACERS_advScheme = /* Advection Scheme */
(PID.TID 0000.0001)                      33
(PID.TID 0000.0001)     ;
(PID.TID 0000.0001) PTRACERS_SOM_Advection = /* tracer uses SOM advection scheme */
(PID.TID 0000.0001)                   F
(PID.TID 0000.0001)     ;
(PID.TID 0000.0001) PTRACERS_ImplVertAdv = /* implicit vert. advection flag */
(PID.TID 0000.0001)                   F
(PID.TID 0000.0001)     ;
(PID.TID 0000.0001) PTRACERS_MultiDimAdv = /* tracer uses Multi-Dim advection */
(PID.TID 0000.0001)                   T
(PID.TID 0000.0001)     ;
(PID.TID 0000.0001) PTRACERS_AdamsBashGtr = /* apply AB on tracer tendency */
(PID.TID 0000.0001)                   F
(PID.TID 0000.0001)     ;
(PID.TID 0000.0001) PTRACERS_AdamsBash_Tr = /* apply AB on passive tracer */
(PID.TID 0000.0001)                   F
(PID.TID 0000.0001)     ;
(PID.TID 0000.0001) PTRACERS_diffKh = /* Laplacian Diffusivity */
(PID.TID 0000.0001)                 0.000000000000000E+00
(PID.TID 0000.0001)     ;
(PID.TID 0000.0001) PTRACERS_diffK4 = /* Biharmonic Diffusivity */
(PID.TID 0000.0001)                 0.000000000000000E+00
(PID.TID 0000.0001)     ;
(PID.TID 0000.0001) PTRACERS_diffKrNr = /* Vertical Diffusivity */
(PID.TID 0000.0001)    35 @  1.000000000000000E-05              /* K =  1: 35 */
(PID.TID 0000.0001)     ;
(PID.TID 0000.0001) PTRACERS_useGMRedi = /* apply GM-Redi */
(PID.TID 0000.0001)                   F
(PID.TID 0000.0001)     ;
(PID.TID 0000.0001) PTRACERS_useDWNSLP = /* apply DOWN-SLOPE Flow */
(PID.TID 0000.0001)                   F
(PID.TID 0000.0001)     ;
(PID.TID 0000.0001) PTRACERS_useKPP = /* apply KPP scheme */
(PID.TID 0000.0001)                   T
(PID.TID 0000.0001)     ;
(PID.TID 0000.0001) PTRACERS_ref = /* Reference vertical profile */
(PID.TID 0000.0001)    35 @  0.000000000000000E+00              /* K =  1: 35 */
(PID.TID 0000.0001)     ;
(PID.TID 0000.0001) PTRACERS_EvPrRn =/* tracer conc. in Evap. & Rain */
(PID.TID 0000.0001)                 1.234567000000000E+05
(PID.TID 0000.0001)     ;
(PID.TID 0000.0001)  -----------------------------------
(PID.TID 0000.0001)  tracer number :  108
(PID.TID 0000.0001) PTRACERS_names = /* Tracer short name */
(PID.TID 0000.0001)               'p13'
(PID.TID 0000.0001)     ;
(PID.TID 0000.0001) PTRACERS_long_names = /* Tracer long name */
(PID.TID 0000.0001)               ''
(PID.TID 0000.0001)     ;
(PID.TID 0000.0001) PTRACERS_ioLabel = /* tracer IO Label */
(PID.TID 0000.0001)               '0i'
(PID.TID 0000.0001)     ;
(PID.TID 0000.0001) PTRACERS_advScheme = /* Advection Scheme */
(PID.TID 0000.0001)                      33
(PID.TID 0000.0001)     ;
(PID.TID 0000.0001) PTRACERS_SOM_Advection = /* tracer uses SOM advection scheme */
(PID.TID 0000.0001)                   F
(PID.TID 0000.0001)     ;
(PID.TID 0000.0001) PTRACERS_ImplVertAdv = /* implicit vert. advection flag */
(PID.TID 0000.0001)                   F
(PID.TID 0000.0001)     ;
(PID.TID 0000.0001) PTRACERS_MultiDimAdv = /* tracer uses Multi-Dim advection */
(PID.TID 0000.0001)                   T
(PID.TID 0000.0001)     ;
(PID.TID 0000.0001) PTRACERS_AdamsBashGtr = /* apply AB on tracer tendency */
(PID.TID 0000.0001)                   F
(PID.TID 0000.0001)     ;
(PID.TID 0000.0001) PTRACERS_AdamsBash_Tr = /* apply AB on passive tracer */
(PID.TID 0000.0001)                   F
(PID.TID 0000.0001)     ;
(PID.TID 0000.0001) PTRACERS_diffKh = /* Laplacian Diffusivity */
(PID.TID 0000.0001)                 0.000000000000000E+00
(PID.TID 0000.0001)     ;
(PID.TID 0000.0001) PTRACERS_diffK4 = /* Biharmonic Diffusivity */
(PID.TID 0000.0001)                 0.000000000000000E+00
(PID.TID 0000.0001)     ;
(PID.TID 0000.0001) PTRACERS_diffKrNr = /* Vertical Diffusivity */
(PID.TID 0000.0001)    35 @  1.000000000000000E-05              /* K =  1: 35 */
(PID.TID 0000.0001)     ;
(PID.TID 0000.0001) PTRACERS_useGMRedi = /* apply GM-Redi */
(PID.TID 0000.0001)                   F
(PID.TID 0000.0001)     ;
(PID.TID 0000.0001) PTRACERS_useDWNSLP = /* apply DOWN-SLOPE Flow */
(PID.TID 0000.0001)                   F
(PID.TID 0000.0001)     ;
(PID.TID 0000.0001) PTRACERS_useKPP = /* apply KPP scheme */
(PID.TID 0000.0001)                   T
(PID.TID 0000.0001)     ;
(PID.TID 0000.0001) PTRACERS_ref = /* Reference vertical profile */
(PID.TID 0000.0001)    35 @  0.000000000000000E+00              /* K =  1: 35 */
(PID.TID 0000.0001)     ;
(PID.TID 0000.0001) PTRACERS_EvPrRn =/* tracer conc. in Evap. & Rain */
(PID.TID 0000.0001)                 1.234567000000000E+05
(PID.TID 0000.0001)     ;
(PID.TID 0000.0001)  -----------------------------------
(PID.TID 0000.0001)  tracer number :  109
(PID.TID 0000.0001) PTRACERS_names = /* Tracer short name */
(PID.TID 0000.0001)               'p14'
(PID.TID 0000.0001)     ;
(PID.TID 0000.0001) PTRACERS_long_names = /* Tracer long name */
(PID.TID 0000.0001)               ''
(PID.TID 0000.0001)     ;
(PID.TID 0000.0001) PTRACERS_ioLabel = /* tracer IO Label */
(PID.TID 0000.0001)               '0j'
(PID.TID 0000.0001)     ;
(PID.TID 0000.0001) PTRACERS_advScheme = /* Advection Scheme */
(PID.TID 0000.0001)                      33
(PID.TID 0000.0001)     ;
(PID.TID 0000.0001) PTRACERS_SOM_Advection = /* tracer uses SOM advection scheme */
(PID.TID 0000.0001)                   F
(PID.TID 0000.0001)     ;
(PID.TID 0000.0001) PTRACERS_ImplVertAdv = /* implicit vert. advection flag */
(PID.TID 0000.0001)                   F
(PID.TID 0000.0001)     ;
(PID.TID 0000.0001) PTRACERS_MultiDimAdv = /* tracer uses Multi-Dim advection */
(PID.TID 0000.0001)                   T
(PID.TID 0000.0001)     ;
(PID.TID 0000.0001) PTRACERS_AdamsBashGtr = /* apply AB on tracer tendency */
(PID.TID 0000.0001)                   F
(PID.TID 0000.0001)     ;
(PID.TID 0000.0001) PTRACERS_AdamsBash_Tr = /* apply AB on passive tracer */
(PID.TID 0000.0001)                   F
(PID.TID 0000.0001)     ;
(PID.TID 0000.0001) PTRACERS_diffKh = /* Laplacian Diffusivity */
(PID.TID 0000.0001)                 0.000000000000000E+00
(PID.TID 0000.0001)     ;
(PID.TID 0000.0001) PTRACERS_diffK4 = /* Biharmonic Diffusivity */
(PID.TID 0000.0001)                 0.000000000000000E+00
(PID.TID 0000.0001)     ;
(PID.TID 0000.0001) PTRACERS_diffKrNr = /* Vertical Diffusivity */
(PID.TID 0000.0001)    35 @  1.000000000000000E-05              /* K =  1: 35 */
(PID.TID 0000.0001)     ;
(PID.TID 0000.0001) PTRACERS_useGMRedi = /* apply GM-Redi */
(PID.TID 0000.0001)                   F
(PID.TID 0000.0001)     ;
(PID.TID 0000.0001) PTRACERS_useDWNSLP = /* apply DOWN-SLOPE Flow */
(PID.TID 0000.0001)                   F
(PID.TID 0000.0001)     ;
(PID.TID 0000.0001) PTRACERS_useKPP = /* apply KPP scheme */
(PID.TID 0000.0001)                   T
(PID.TID 0000.0001)     ;
(PID.TID 0000.0001) PTRACERS_ref = /* Reference vertical profile */
(PID.TID 0000.0001)    35 @  0.000000000000000E+00              /* K =  1: 35 */
(PID.TID 0000.0001)     ;
(PID.TID 0000.0001) PTRACERS_EvPrRn =/* tracer conc. in Evap. & Rain */
(PID.TID 0000.0001)                 1.234567000000000E+05
(PID.TID 0000.0001)     ;
(PID.TID 0000.0001)  -----------------------------------
(PID.TID 0000.0001)  tracer number :  110
(PID.TID 0000.0001) PTRACERS_names = /* Tracer short name */
(PID.TID 0000.0001)               'p15'
(PID.TID 0000.0001)     ;
(PID.TID 0000.0001) PTRACERS_long_names = /* Tracer long name */
(PID.TID 0000.0001)               ''
(PID.TID 0000.0001)     ;
(PID.TID 0000.0001) PTRACERS_ioLabel = /* tracer IO Label */
(PID.TID 0000.0001)               '0k'
(PID.TID 0000.0001)     ;
(PID.TID 0000.0001) PTRACERS_advScheme = /* Advection Scheme */
(PID.TID 0000.0001)                      33
(PID.TID 0000.0001)     ;
(PID.TID 0000.0001) PTRACERS_SOM_Advection = /* tracer uses SOM advection scheme */
(PID.TID 0000.0001)                   F
(PID.TID 0000.0001)     ;
(PID.TID 0000.0001) PTRACERS_ImplVertAdv = /* implicit vert. advection flag */
(PID.TID 0000.0001)                   F
(PID.TID 0000.0001)     ;
(PID.TID 0000.0001) PTRACERS_MultiDimAdv = /* tracer uses Multi-Dim advection */
(PID.TID 0000.0001)                   T
(PID.TID 0000.0001)     ;
(PID.TID 0000.0001) PTRACERS_AdamsBashGtr = /* apply AB on tracer tendency */
(PID.TID 0000.0001)                   F
(PID.TID 0000.0001)     ;
(PID.TID 0000.0001) PTRACERS_AdamsBash_Tr = /* apply AB on passive tracer */
(PID.TID 0000.0001)                   F
(PID.TID 0000.0001)     ;
(PID.TID 0000.0001) PTRACERS_diffKh = /* Laplacian Diffusivity */
(PID.TID 0000.0001)                 0.000000000000000E+00
(PID.TID 0000.0001)     ;
(PID.TID 0000.0001) PTRACERS_diffK4 = /* Biharmonic Diffusivity */
(PID.TID 0000.0001)                 0.000000000000000E+00
(PID.TID 0000.0001)     ;
(PID.TID 0000.0001) PTRACERS_diffKrNr = /* Vertical Diffusivity */
(PID.TID 0000.0001)    35 @  1.000000000000000E-05              /* K =  1: 35 */
(PID.TID 0000.0001)     ;
(PID.TID 0000.0001) PTRACERS_useGMRedi = /* apply GM-Redi */
(PID.TID 0000.0001)                   F
(PID.TID 0000.0001)     ;
(PID.TID 0000.0001) PTRACERS_useDWNSLP = /* apply DOWN-SLOPE Flow */
(PID.TID 0000.0001)                   F
(PID.TID 0000.0001)     ;
(PID.TID 0000.0001) PTRACERS_useKPP = /* apply KPP scheme */
(PID.TID 0000.0001)                   T
(PID.TID 0000.0001)     ;
(PID.TID 0000.0001) PTRACERS_ref = /* Reference vertical profile */
(PID.TID 0000.0001)    35 @  0.000000000000000E+00              /* K =  1: 35 */
(PID.TID 0000.0001)     ;
(PID.TID 0000.0001) PTRACERS_EvPrRn =/* tracer conc. in Evap. & Rain */
(PID.TID 0000.0001)                 1.234567000000000E+05
(PID.TID 0000.0001)     ;
(PID.TID 0000.0001)  -----------------------------------
(PID.TID 0000.0001)  tracer number :  111
(PID.TID 0000.0001) PTRACERS_names = /* Tracer short name */
(PID.TID 0000.0001)               'p16'
(PID.TID 0000.0001)     ;
(PID.TID 0000.0001) PTRACERS_long_names = /* Tracer long name */
(PID.TID 0000.0001)               ''
(PID.TID 0000.0001)     ;
(PID.TID 0000.0001) PTRACERS_ioLabel = /* tracer IO Label */
(PID.TID 0000.0001)               '0l'
(PID.TID 0000.0001)     ;
(PID.TID 0000.0001) PTRACERS_advScheme = /* Advection Scheme */
(PID.TID 0000.0001)                      33
(PID.TID 0000.0001)     ;
(PID.TID 0000.0001) PTRACERS_SOM_Advection = /* tracer uses SOM advection scheme */
(PID.TID 0000.0001)                   F
(PID.TID 0000.0001)     ;
(PID.TID 0000.0001) PTRACERS_ImplVertAdv = /* implicit vert. advection flag */
(PID.TID 0000.0001)                   F
(PID.TID 0000.0001)     ;
(PID.TID 0000.0001) PTRACERS_MultiDimAdv = /* tracer uses Multi-Dim advection */
(PID.TID 0000.0001)                   T
(PID.TID 0000.0001)     ;
(PID.TID 0000.0001) PTRACERS_AdamsBashGtr = /* apply AB on tracer tendency */
(PID.TID 0000.0001)                   F
(PID.TID 0000.0001)     ;
(PID.TID 0000.0001) PTRACERS_AdamsBash_Tr = /* apply AB on passive tracer */
(PID.TID 0000.0001)                   F
(PID.TID 0000.0001)     ;
(PID.TID 0000.0001) PTRACERS_diffKh = /* Laplacian Diffusivity */
(PID.TID 0000.0001)                 0.000000000000000E+00
(PID.TID 0000.0001)     ;
(PID.TID 0000.0001) PTRACERS_diffK4 = /* Biharmonic Diffusivity */
(PID.TID 0000.0001)                 0.000000000000000E+00
(PID.TID 0000.0001)     ;
(PID.TID 0000.0001) PTRACERS_diffKrNr = /* Vertical Diffusivity */
(PID.TID 0000.0001)    35 @  1.000000000000000E-05              /* K =  1: 35 */
(PID.TID 0000.0001)     ;
(PID.TID 0000.0001) PTRACERS_useGMRedi = /* apply GM-Redi */
(PID.TID 0000.0001)                   F
(PID.TID 0000.0001)     ;
(PID.TID 0000.0001) PTRACERS_useDWNSLP = /* apply DOWN-SLOPE Flow */
(PID.TID 0000.0001)                   F
(PID.TID 0000.0001)     ;
(PID.TID 0000.0001) PTRACERS_useKPP = /* apply KPP scheme */
(PID.TID 0000.0001)                   T
(PID.TID 0000.0001)     ;
(PID.TID 0000.0001) PTRACERS_ref = /* Reference vertical profile */
(PID.TID 0000.0001)    35 @  0.000000000000000E+00              /* K =  1: 35 */
(PID.TID 0000.0001)     ;
(PID.TID 0000.0001) PTRACERS_EvPrRn =/* tracer conc. in Evap. & Rain */
(PID.TID 0000.0001)                 1.234567000000000E+05
(PID.TID 0000.0001)     ;
(PID.TID 0000.0001)  -----------------------------------
(PID.TID 0000.0001)  tracer number :  112
(PID.TID 0000.0001) PTRACERS_names = /* Tracer short name */
(PID.TID 0000.0001)               'p17'
(PID.TID 0000.0001)     ;
(PID.TID 0000.0001) PTRACERS_long_names = /* Tracer long name */
(PID.TID 0000.0001)               ''
(PID.TID 0000.0001)     ;
(PID.TID 0000.0001) PTRACERS_ioLabel = /* tracer IO Label */
(PID.TID 0000.0001)               '0m'
(PID.TID 0000.0001)     ;
(PID.TID 0000.0001) PTRACERS_advScheme = /* Advection Scheme */
(PID.TID 0000.0001)                      33
(PID.TID 0000.0001)     ;
(PID.TID 0000.0001) PTRACERS_SOM_Advection = /* tracer uses SOM advection scheme */
(PID.TID 0000.0001)                   F
(PID.TID 0000.0001)     ;
(PID.TID 0000.0001) PTRACERS_ImplVertAdv = /* implicit vert. advection flag */
(PID.TID 0000.0001)                   F
(PID.TID 0000.0001)     ;
(PID.TID 0000.0001) PTRACERS_MultiDimAdv = /* tracer uses Multi-Dim advection */
(PID.TID 0000.0001)                   T
(PID.TID 0000.0001)     ;
(PID.TID 0000.0001) PTRACERS_AdamsBashGtr = /* apply AB on tracer tendency */
(PID.TID 0000.0001)                   F
(PID.TID 0000.0001)     ;
(PID.TID 0000.0001) PTRACERS_AdamsBash_Tr = /* apply AB on passive tracer */
(PID.TID 0000.0001)                   F
(PID.TID 0000.0001)     ;
(PID.TID 0000.0001) PTRACERS_diffKh = /* Laplacian Diffusivity */
(PID.TID 0000.0001)                 0.000000000000000E+00
(PID.TID 0000.0001)     ;
(PID.TID 0000.0001) PTRACERS_diffK4 = /* Biharmonic Diffusivity */
(PID.TID 0000.0001)                 0.000000000000000E+00
(PID.TID 0000.0001)     ;
(PID.TID 0000.0001) PTRACERS_diffKrNr = /* Vertical Diffusivity */
(PID.TID 0000.0001)    35 @  1.000000000000000E-05              /* K =  1: 35 */
(PID.TID 0000.0001)     ;
(PID.TID 0000.0001) PTRACERS_useGMRedi = /* apply GM-Redi */
(PID.TID 0000.0001)                   F
(PID.TID 0000.0001)     ;
(PID.TID 0000.0001) PTRACERS_useDWNSLP = /* apply DOWN-SLOPE Flow */
(PID.TID 0000.0001)                   F
(PID.TID 0000.0001)     ;
(PID.TID 0000.0001) PTRACERS_useKPP = /* apply KPP scheme */
(PID.TID 0000.0001)                   T
(PID.TID 0000.0001)     ;
(PID.TID 0000.0001) PTRACERS_ref = /* Reference vertical profile */
(PID.TID 0000.0001)    35 @  0.000000000000000E+00              /* K =  1: 35 */
(PID.TID 0000.0001)     ;
(PID.TID 0000.0001) PTRACERS_EvPrRn =/* tracer conc. in Evap. & Rain */
(PID.TID 0000.0001)                 1.234567000000000E+05
(PID.TID 0000.0001)     ;
(PID.TID 0000.0001)  -----------------------------------
(PID.TID 0000.0001)  tracer number :  113
(PID.TID 0000.0001) PTRACERS_names = /* Tracer short name */
(PID.TID 0000.0001)               'p18'
(PID.TID 0000.0001)     ;
(PID.TID 0000.0001) PTRACERS_long_names = /* Tracer long name */
(PID.TID 0000.0001)               ''
(PID.TID 0000.0001)     ;
(PID.TID 0000.0001) PTRACERS_ioLabel = /* tracer IO Label */
(PID.TID 0000.0001)               '0n'
(PID.TID 0000.0001)     ;
(PID.TID 0000.0001) PTRACERS_advScheme = /* Advection Scheme */
(PID.TID 0000.0001)                      33
(PID.TID 0000.0001)     ;
(PID.TID 0000.0001) PTRACERS_SOM_Advection = /* tracer uses SOM advection scheme */
(PID.TID 0000.0001)                   F
(PID.TID 0000.0001)     ;
(PID.TID 0000.0001) PTRACERS_ImplVertAdv = /* implicit vert. advection flag */
(PID.TID 0000.0001)                   F
(PID.TID 0000.0001)     ;
(PID.TID 0000.0001) PTRACERS_MultiDimAdv = /* tracer uses Multi-Dim advection */
(PID.TID 0000.0001)                   T
(PID.TID 0000.0001)     ;
(PID.TID 0000.0001) PTRACERS_AdamsBashGtr = /* apply AB on tracer tendency */
(PID.TID 0000.0001)                   F
(PID.TID 0000.0001)     ;
(PID.TID 0000.0001) PTRACERS_AdamsBash_Tr = /* apply AB on passive tracer */
(PID.TID 0000.0001)                   F
(PID.TID 0000.0001)     ;
(PID.TID 0000.0001) PTRACERS_diffKh = /* Laplacian Diffusivity */
(PID.TID 0000.0001)                 0.000000000000000E+00
(PID.TID 0000.0001)     ;
(PID.TID 0000.0001) PTRACERS_diffK4 = /* Biharmonic Diffusivity */
(PID.TID 0000.0001)                 0.000000000000000E+00
(PID.TID 0000.0001)     ;
(PID.TID 0000.0001) PTRACERS_diffKrNr = /* Vertical Diffusivity */
(PID.TID 0000.0001)    35 @  1.000000000000000E-05              /* K =  1: 35 */
(PID.TID 0000.0001)     ;
(PID.TID 0000.0001) PTRACERS_useGMRedi = /* apply GM-Redi */
(PID.TID 0000.0001)                   F
(PID.TID 0000.0001)     ;
(PID.TID 0000.0001) PTRACERS_useDWNSLP = /* apply DOWN-SLOPE Flow */
(PID.TID 0000.0001)                   F
(PID.TID 0000.0001)     ;
(PID.TID 0000.0001) PTRACERS_useKPP = /* apply KPP scheme */
(PID.TID 0000.0001)                   T
(PID.TID 0000.0001)     ;
(PID.TID 0000.0001) PTRACERS_ref = /* Reference vertical profile */
(PID.TID 0000.0001)    35 @  0.000000000000000E+00              /* K =  1: 35 */
(PID.TID 0000.0001)     ;
(PID.TID 0000.0001) PTRACERS_EvPrRn =/* tracer conc. in Evap. & Rain */
(PID.TID 0000.0001)                 1.234567000000000E+05
(PID.TID 0000.0001)     ;
(PID.TID 0000.0001)  -----------------------------------
(PID.TID 0000.0001)  tracer number :  114
(PID.TID 0000.0001) PTRACERS_names = /* Tracer short name */
(PID.TID 0000.0001)               'p19'
(PID.TID 0000.0001)     ;
(PID.TID 0000.0001) PTRACERS_long_names = /* Tracer long name */
(PID.TID 0000.0001)               ''
(PID.TID 0000.0001)     ;
(PID.TID 0000.0001) PTRACERS_ioLabel = /* tracer IO Label */
(PID.TID 0000.0001)               '0o'
(PID.TID 0000.0001)     ;
(PID.TID 0000.0001) PTRACERS_advScheme = /* Advection Scheme */
(PID.TID 0000.0001)                      33
(PID.TID 0000.0001)     ;
(PID.TID 0000.0001) PTRACERS_SOM_Advection = /* tracer uses SOM advection scheme */
(PID.TID 0000.0001)                   F
(PID.TID 0000.0001)     ;
(PID.TID 0000.0001) PTRACERS_ImplVertAdv = /* implicit vert. advection flag */
(PID.TID 0000.0001)                   F
(PID.TID 0000.0001)     ;
(PID.TID 0000.0001) PTRACERS_MultiDimAdv = /* tracer uses Multi-Dim advection */
(PID.TID 0000.0001)                   T
(PID.TID 0000.0001)     ;
(PID.TID 0000.0001) PTRACERS_AdamsBashGtr = /* apply AB on tracer tendency */
(PID.TID 0000.0001)                   F
(PID.TID 0000.0001)     ;
(PID.TID 0000.0001) PTRACERS_AdamsBash_Tr = /* apply AB on passive tracer */
(PID.TID 0000.0001)                   F
(PID.TID 0000.0001)     ;
(PID.TID 0000.0001) PTRACERS_diffKh = /* Laplacian Diffusivity */
(PID.TID 0000.0001)                 0.000000000000000E+00
(PID.TID 0000.0001)     ;
(PID.TID 0000.0001) PTRACERS_diffK4 = /* Biharmonic Diffusivity */
(PID.TID 0000.0001)                 0.000000000000000E+00
(PID.TID 0000.0001)     ;
(PID.TID 0000.0001) PTRACERS_diffKrNr = /* Vertical Diffusivity */
(PID.TID 0000.0001)    35 @  1.000000000000000E-05              /* K =  1: 35 */
(PID.TID 0000.0001)     ;
(PID.TID 0000.0001) PTRACERS_useGMRedi = /* apply GM-Redi */
(PID.TID 0000.0001)                   F
(PID.TID 0000.0001)     ;
(PID.TID 0000.0001) PTRACERS_useDWNSLP = /* apply DOWN-SLOPE Flow */
(PID.TID 0000.0001)                   F
(PID.TID 0000.0001)     ;
(PID.TID 0000.0001) PTRACERS_useKPP = /* apply KPP scheme */
(PID.TID 0000.0001)                   T
(PID.TID 0000.0001)     ;
(PID.TID 0000.0001) PTRACERS_ref = /* Reference vertical profile */
(PID.TID 0000.0001)    35 @  0.000000000000000E+00              /* K =  1: 35 */
(PID.TID 0000.0001)     ;
(PID.TID 0000.0001) PTRACERS_EvPrRn =/* tracer conc. in Evap. & Rain */
(PID.TID 0000.0001)                 1.234567000000000E+05
(PID.TID 0000.0001)     ;
(PID.TID 0000.0001)  -----------------------------------
(PID.TID 0000.0001)  tracer number :  115
(PID.TID 0000.0001) PTRACERS_names = /* Tracer short name */
(PID.TID 0000.0001)               'p20'
(PID.TID 0000.0001)     ;
(PID.TID 0000.0001) PTRACERS_long_names = /* Tracer long name */
(PID.TID 0000.0001)               ''
(PID.TID 0000.0001)     ;
(PID.TID 0000.0001) PTRACERS_ioLabel = /* tracer IO Label */
(PID.TID 0000.0001)               '0p'
(PID.TID 0000.0001)     ;
(PID.TID 0000.0001) PTRACERS_advScheme = /* Advection Scheme */
(PID.TID 0000.0001)                      33
(PID.TID 0000.0001)     ;
(PID.TID 0000.0001) PTRACERS_SOM_Advection = /* tracer uses SOM advection scheme */
(PID.TID 0000.0001)                   F
(PID.TID 0000.0001)     ;
(PID.TID 0000.0001) PTRACERS_ImplVertAdv = /* implicit vert. advection flag */
(PID.TID 0000.0001)                   F
(PID.TID 0000.0001)     ;
(PID.TID 0000.0001) PTRACERS_MultiDimAdv = /* tracer uses Multi-Dim advection */
(PID.TID 0000.0001)                   T
(PID.TID 0000.0001)     ;
(PID.TID 0000.0001) PTRACERS_AdamsBashGtr = /* apply AB on tracer tendency */
(PID.TID 0000.0001)                   F
(PID.TID 0000.0001)     ;
(PID.TID 0000.0001) PTRACERS_AdamsBash_Tr = /* apply AB on passive tracer */
(PID.TID 0000.0001)                   F
(PID.TID 0000.0001)     ;
(PID.TID 0000.0001) PTRACERS_diffKh = /* Laplacian Diffusivity */
(PID.TID 0000.0001)                 0.000000000000000E+00
(PID.TID 0000.0001)     ;
(PID.TID 0000.0001) PTRACERS_diffK4 = /* Biharmonic Diffusivity */
(PID.TID 0000.0001)                 0.000000000000000E+00
(PID.TID 0000.0001)     ;
(PID.TID 0000.0001) PTRACERS_diffKrNr = /* Vertical Diffusivity */
(PID.TID 0000.0001)    35 @  1.000000000000000E-05              /* K =  1: 35 */
(PID.TID 0000.0001)     ;
(PID.TID 0000.0001) PTRACERS_useGMRedi = /* apply GM-Redi */
(PID.TID 0000.0001)                   F
(PID.TID 0000.0001)     ;
(PID.TID 0000.0001) PTRACERS_useDWNSLP = /* apply DOWN-SLOPE Flow */
(PID.TID 0000.0001)                   F
(PID.TID 0000.0001)     ;
(PID.TID 0000.0001) PTRACERS_useKPP = /* apply KPP scheme */
(PID.TID 0000.0001)                   T
(PID.TID 0000.0001)     ;
(PID.TID 0000.0001) PTRACERS_ref = /* Reference vertical profile */
(PID.TID 0000.0001)    35 @  0.000000000000000E+00              /* K =  1: 35 */
(PID.TID 0000.0001)     ;
(PID.TID 0000.0001) PTRACERS_EvPrRn =/* tracer conc. in Evap. & Rain */
(PID.TID 0000.0001)                 1.234567000000000E+05
(PID.TID 0000.0001)     ;
(PID.TID 0000.0001)  -----------------------------------
(PID.TID 0000.0001)  tracer number :  116
(PID.TID 0000.0001) PTRACERS_names = /* Tracer short name */
(PID.TID 0000.0001)               'p21'
(PID.TID 0000.0001)     ;
(PID.TID 0000.0001) PTRACERS_long_names = /* Tracer long name */
(PID.TID 0000.0001)               ''
(PID.TID 0000.0001)     ;
(PID.TID 0000.0001) PTRACERS_ioLabel = /* tracer IO Label */
(PID.TID 0000.0001)               '0q'
(PID.TID 0000.0001)     ;
(PID.TID 0000.0001) PTRACERS_advScheme = /* Advection Scheme */
(PID.TID 0000.0001)                      33
(PID.TID 0000.0001)     ;
(PID.TID 0000.0001) PTRACERS_SOM_Advection = /* tracer uses SOM advection scheme */
(PID.TID 0000.0001)                   F
(PID.TID 0000.0001)     ;
(PID.TID 0000.0001) PTRACERS_ImplVertAdv = /* implicit vert. advection flag */
(PID.TID 0000.0001)                   F
(PID.TID 0000.0001)     ;
(PID.TID 0000.0001) PTRACERS_MultiDimAdv = /* tracer uses Multi-Dim advection */
(PID.TID 0000.0001)                   T
(PID.TID 0000.0001)     ;
(PID.TID 0000.0001) PTRACERS_AdamsBashGtr = /* apply AB on tracer tendency */
(PID.TID 0000.0001)                   F
(PID.TID 0000.0001)     ;
(PID.TID 0000.0001) PTRACERS_AdamsBash_Tr = /* apply AB on passive tracer */
(PID.TID 0000.0001)                   F
(PID.TID 0000.0001)     ;
(PID.TID 0000.0001) PTRACERS_diffKh = /* Laplacian Diffusivity */
(PID.TID 0000.0001)                 0.000000000000000E+00
(PID.TID 0000.0001)     ;
(PID.TID 0000.0001) PTRACERS_diffK4 = /* Biharmonic Diffusivity */
(PID.TID 0000.0001)                 0.000000000000000E+00
(PID.TID 0000.0001)     ;
(PID.TID 0000.0001) PTRACERS_diffKrNr = /* Vertical Diffusivity */
(PID.TID 0000.0001)    35 @  1.000000000000000E-05              /* K =  1: 35 */
(PID.TID 0000.0001)     ;
(PID.TID 0000.0001) PTRACERS_useGMRedi = /* apply GM-Redi */
(PID.TID 0000.0001)                   F
(PID.TID 0000.0001)     ;
(PID.TID 0000.0001) PTRACERS_useDWNSLP = /* apply DOWN-SLOPE Flow */
(PID.TID 0000.0001)                   F
(PID.TID 0000.0001)     ;
(PID.TID 0000.0001) PTRACERS_useKPP = /* apply KPP scheme */
(PID.TID 0000.0001)                   T
(PID.TID 0000.0001)     ;
(PID.TID 0000.0001) PTRACERS_ref = /* Reference vertical profile */
(PID.TID 0000.0001)    35 @  0.000000000000000E+00              /* K =  1: 35 */
(PID.TID 0000.0001)     ;
(PID.TID 0000.0001) PTRACERS_EvPrRn =/* tracer conc. in Evap. & Rain */
(PID.TID 0000.0001)                 1.234567000000000E+05
(PID.TID 0000.0001)     ;
(PID.TID 0000.0001)  -----------------------------------
(PID.TID 0000.0001)  tracer number :  117
(PID.TID 0000.0001) PTRACERS_names = /* Tracer short name */
(PID.TID 0000.0001)               'p22'
(PID.TID 0000.0001)     ;
(PID.TID 0000.0001) PTRACERS_long_names = /* Tracer long name */
(PID.TID 0000.0001)               ''
(PID.TID 0000.0001)     ;
(PID.TID 0000.0001) PTRACERS_ioLabel = /* tracer IO Label */
(PID.TID 0000.0001)               '0r'
(PID.TID 0000.0001)     ;
(PID.TID 0000.0001) PTRACERS_advScheme = /* Advection Scheme */
(PID.TID 0000.0001)                      33
(PID.TID 0000.0001)     ;
(PID.TID 0000.0001) PTRACERS_SOM_Advection = /* tracer uses SOM advection scheme */
(PID.TID 0000.0001)                   F
(PID.TID 0000.0001)     ;
(PID.TID 0000.0001) PTRACERS_ImplVertAdv = /* implicit vert. advection flag */
(PID.TID 0000.0001)                   F
(PID.TID 0000.0001)     ;
(PID.TID 0000.0001) PTRACERS_MultiDimAdv = /* tracer uses Multi-Dim advection */
(PID.TID 0000.0001)                   T
(PID.TID 0000.0001)     ;
(PID.TID 0000.0001) PTRACERS_AdamsBashGtr = /* apply AB on tracer tendency */
(PID.TID 0000.0001)                   F
(PID.TID 0000.0001)     ;
(PID.TID 0000.0001) PTRACERS_AdamsBash_Tr = /* apply AB on passive tracer */
(PID.TID 0000.0001)                   F
(PID.TID 0000.0001)     ;
(PID.TID 0000.0001) PTRACERS_diffKh = /* Laplacian Diffusivity */
(PID.TID 0000.0001)                 0.000000000000000E+00
(PID.TID 0000.0001)     ;
(PID.TID 0000.0001) PTRACERS_diffK4 = /* Biharmonic Diffusivity */
(PID.TID 0000.0001)                 0.000000000000000E+00
(PID.TID 0000.0001)     ;
(PID.TID 0000.0001) PTRACERS_diffKrNr = /* Vertical Diffusivity */
(PID.TID 0000.0001)    35 @  1.000000000000000E-05              /* K =  1: 35 */
(PID.TID 0000.0001)     ;
(PID.TID 0000.0001) PTRACERS_useGMRedi = /* apply GM-Redi */
(PID.TID 0000.0001)                   F
(PID.TID 0000.0001)     ;
(PID.TID 0000.0001) PTRACERS_useDWNSLP = /* apply DOWN-SLOPE Flow */
(PID.TID 0000.0001)                   F
(PID.TID 0000.0001)     ;
(PID.TID 0000.0001) PTRACERS_useKPP = /* apply KPP scheme */
(PID.TID 0000.0001)                   T
(PID.TID 0000.0001)     ;
(PID.TID 0000.0001) PTRACERS_ref = /* Reference vertical profile */
(PID.TID 0000.0001)    35 @  0.000000000000000E+00              /* K =  1: 35 */
(PID.TID 0000.0001)     ;
(PID.TID 0000.0001) PTRACERS_EvPrRn =/* tracer conc. in Evap. & Rain */
(PID.TID 0000.0001)                 1.234567000000000E+05
(PID.TID 0000.0001)     ;
(PID.TID 0000.0001)  -----------------------------------
(PID.TID 0000.0001)  tracer number :  118
(PID.TID 0000.0001) PTRACERS_names = /* Tracer short name */
(PID.TID 0000.0001)               'p23'
(PID.TID 0000.0001)     ;
(PID.TID 0000.0001) PTRACERS_long_names = /* Tracer long name */
(PID.TID 0000.0001)               ''
(PID.TID 0000.0001)     ;
(PID.TID 0000.0001) PTRACERS_ioLabel = /* tracer IO Label */
(PID.TID 0000.0001)               '0s'
(PID.TID 0000.0001)     ;
(PID.TID 0000.0001) PTRACERS_advScheme = /* Advection Scheme */
(PID.TID 0000.0001)                      33
(PID.TID 0000.0001)     ;
(PID.TID 0000.0001) PTRACERS_SOM_Advection = /* tracer uses SOM advection scheme */
(PID.TID 0000.0001)                   F
(PID.TID 0000.0001)     ;
(PID.TID 0000.0001) PTRACERS_ImplVertAdv = /* implicit vert. advection flag */
(PID.TID 0000.0001)                   F
(PID.TID 0000.0001)     ;
(PID.TID 0000.0001) PTRACERS_MultiDimAdv = /* tracer uses Multi-Dim advection */
(PID.TID 0000.0001)                   T
(PID.TID 0000.0001)     ;
(PID.TID 0000.0001) PTRACERS_AdamsBashGtr = /* apply AB on tracer tendency */
(PID.TID 0000.0001)                   F
(PID.TID 0000.0001)     ;
(PID.TID 0000.0001) PTRACERS_AdamsBash_Tr = /* apply AB on passive tracer */
(PID.TID 0000.0001)                   F
(PID.TID 0000.0001)     ;
(PID.TID 0000.0001) PTRACERS_diffKh = /* Laplacian Diffusivity */
(PID.TID 0000.0001)                 0.000000000000000E+00
(PID.TID 0000.0001)     ;
(PID.TID 0000.0001) PTRACERS_diffK4 = /* Biharmonic Diffusivity */
(PID.TID 0000.0001)                 0.000000000000000E+00
(PID.TID 0000.0001)     ;
(PID.TID 0000.0001) PTRACERS_diffKrNr = /* Vertical Diffusivity */
(PID.TID 0000.0001)    35 @  1.000000000000000E-05              /* K =  1: 35 */
(PID.TID 0000.0001)     ;
(PID.TID 0000.0001) PTRACERS_useGMRedi = /* apply GM-Redi */
(PID.TID 0000.0001)                   F
(PID.TID 0000.0001)     ;
(PID.TID 0000.0001) PTRACERS_useDWNSLP = /* apply DOWN-SLOPE Flow */
(PID.TID 0000.0001)                   F
(PID.TID 0000.0001)     ;
(PID.TID 0000.0001) PTRACERS_useKPP = /* apply KPP scheme */
(PID.TID 0000.0001)                   T
(PID.TID 0000.0001)     ;
(PID.TID 0000.0001) PTRACERS_ref = /* Reference vertical profile */
(PID.TID 0000.0001)    35 @  0.000000000000000E+00              /* K =  1: 35 */
(PID.TID 0000.0001)     ;
(PID.TID 0000.0001) PTRACERS_EvPrRn =/* tracer conc. in Evap. & Rain */
(PID.TID 0000.0001)                 1.234567000000000E+05
(PID.TID 0000.0001)     ;
(PID.TID 0000.0001)  -----------------------------------
(PID.TID 0000.0001)  tracer number :  119
(PID.TID 0000.0001) PTRACERS_names = /* Tracer short name */
(PID.TID 0000.0001)               'p24'
(PID.TID 0000.0001)     ;
(PID.TID 0000.0001) PTRACERS_long_names = /* Tracer long name */
(PID.TID 0000.0001)               ''
(PID.TID 0000.0001)     ;
(PID.TID 0000.0001) PTRACERS_ioLabel = /* tracer IO Label */
(PID.TID 0000.0001)               '0t'
(PID.TID 0000.0001)     ;
(PID.TID 0000.0001) PTRACERS_advScheme = /* Advection Scheme */
(PID.TID 0000.0001)                      33
(PID.TID 0000.0001)     ;
(PID.TID 0000.0001) PTRACERS_SOM_Advection = /* tracer uses SOM advection scheme */
(PID.TID 0000.0001)                   F
(PID.TID 0000.0001)     ;
(PID.TID 0000.0001) PTRACERS_ImplVertAdv = /* implicit vert. advection flag */
(PID.TID 0000.0001)                   F
(PID.TID 0000.0001)     ;
(PID.TID 0000.0001) PTRACERS_MultiDimAdv = /* tracer uses Multi-Dim advection */
(PID.TID 0000.0001)                   T
(PID.TID 0000.0001)     ;
(PID.TID 0000.0001) PTRACERS_AdamsBashGtr = /* apply AB on tracer tendency */
(PID.TID 0000.0001)                   F
(PID.TID 0000.0001)     ;
(PID.TID 0000.0001) PTRACERS_AdamsBash_Tr = /* apply AB on passive tracer */
(PID.TID 0000.0001)                   F
(PID.TID 0000.0001)     ;
(PID.TID 0000.0001) PTRACERS_diffKh = /* Laplacian Diffusivity */
(PID.TID 0000.0001)                 0.000000000000000E+00
(PID.TID 0000.0001)     ;
(PID.TID 0000.0001) PTRACERS_diffK4 = /* Biharmonic Diffusivity */
(PID.TID 0000.0001)                 0.000000000000000E+00
(PID.TID 0000.0001)     ;
(PID.TID 0000.0001) PTRACERS_diffKrNr = /* Vertical Diffusivity */
(PID.TID 0000.0001)    35 @  1.000000000000000E-05              /* K =  1: 35 */
(PID.TID 0000.0001)     ;
(PID.TID 0000.0001) PTRACERS_useGMRedi = /* apply GM-Redi */
(PID.TID 0000.0001)                   F
(PID.TID 0000.0001)     ;
(PID.TID 0000.0001) PTRACERS_useDWNSLP = /* apply DOWN-SLOPE Flow */
(PID.TID 0000.0001)                   F
(PID.TID 0000.0001)     ;
(PID.TID 0000.0001) PTRACERS_useKPP = /* apply KPP scheme */
(PID.TID 0000.0001)                   T
(PID.TID 0000.0001)     ;
(PID.TID 0000.0001) PTRACERS_ref = /* Reference vertical profile */
(PID.TID 0000.0001)    35 @  0.000000000000000E+00              /* K =  1: 35 */
(PID.TID 0000.0001)     ;
(PID.TID 0000.0001) PTRACERS_EvPrRn =/* tracer conc. in Evap. & Rain */
(PID.TID 0000.0001)                 1.234567000000000E+05
(PID.TID 0000.0001)     ;
(PID.TID 0000.0001)  -----------------------------------
(PID.TID 0000.0001)  tracer number :  120
(PID.TID 0000.0001) PTRACERS_names = /* Tracer short name */
(PID.TID 0000.0001)               'p25'
(PID.TID 0000.0001)     ;
(PID.TID 0000.0001) PTRACERS_long_names = /* Tracer long name */
(PID.TID 0000.0001)               ''
(PID.TID 0000.0001)     ;
(PID.TID 0000.0001) PTRACERS_ioLabel = /* tracer IO Label */
(PID.TID 0000.0001)               '0u'
(PID.TID 0000.0001)     ;
(PID.TID 0000.0001) PTRACERS_advScheme = /* Advection Scheme */
(PID.TID 0000.0001)                      33
(PID.TID 0000.0001)     ;
(PID.TID 0000.0001) PTRACERS_SOM_Advection = /* tracer uses SOM advection scheme */
(PID.TID 0000.0001)                   F
(PID.TID 0000.0001)     ;
(PID.TID 0000.0001) PTRACERS_ImplVertAdv = /* implicit vert. advection flag */
(PID.TID 0000.0001)                   F
(PID.TID 0000.0001)     ;
(PID.TID 0000.0001) PTRACERS_MultiDimAdv = /* tracer uses Multi-Dim advection */
(PID.TID 0000.0001)                   T
(PID.TID 0000.0001)     ;
(PID.TID 0000.0001) PTRACERS_AdamsBashGtr = /* apply AB on tracer tendency */
(PID.TID 0000.0001)                   F
(PID.TID 0000.0001)     ;
(PID.TID 0000.0001) PTRACERS_AdamsBash_Tr = /* apply AB on passive tracer */
(PID.TID 0000.0001)                   F
(PID.TID 0000.0001)     ;
(PID.TID 0000.0001) PTRACERS_diffKh = /* Laplacian Diffusivity */
(PID.TID 0000.0001)                 0.000000000000000E+00
(PID.TID 0000.0001)     ;
(PID.TID 0000.0001) PTRACERS_diffK4 = /* Biharmonic Diffusivity */
(PID.TID 0000.0001)                 0.000000000000000E+00
(PID.TID 0000.0001)     ;
(PID.TID 0000.0001) PTRACERS_diffKrNr = /* Vertical Diffusivity */
(PID.TID 0000.0001)    35 @  1.000000000000000E-05              /* K =  1: 35 */
(PID.TID 0000.0001)     ;
(PID.TID 0000.0001) PTRACERS_useGMRedi = /* apply GM-Redi */
(PID.TID 0000.0001)                   F
(PID.TID 0000.0001)     ;
(PID.TID 0000.0001) PTRACERS_useDWNSLP = /* apply DOWN-SLOPE Flow */
(PID.TID 0000.0001)                   F
(PID.TID 0000.0001)     ;
(PID.TID 0000.0001) PTRACERS_useKPP = /* apply KPP scheme */
(PID.TID 0000.0001)                   T
(PID.TID 0000.0001)     ;
(PID.TID 0000.0001) PTRACERS_ref = /* Reference vertical profile */
(PID.TID 0000.0001)    35 @  0.000000000000000E+00              /* K =  1: 35 */
(PID.TID 0000.0001)     ;
(PID.TID 0000.0001) PTRACERS_EvPrRn =/* tracer conc. in Evap. & Rain */
(PID.TID 0000.0001)                 1.234567000000000E+05
(PID.TID 0000.0001)     ;
(PID.TID 0000.0001)  -----------------------------------
(PID.TID 0000.0001)  tracer number :  121
(PID.TID 0000.0001) PTRACERS_names = /* Tracer short name */
(PID.TID 0000.0001)               'p26'
(PID.TID 0000.0001)     ;
(PID.TID 0000.0001) PTRACERS_long_names = /* Tracer long name */
(PID.TID 0000.0001)               ''
(PID.TID 0000.0001)     ;
(PID.TID 0000.0001) PTRACERS_ioLabel = /* tracer IO Label */
(PID.TID 0000.0001)               '0v'
(PID.TID 0000.0001)     ;
(PID.TID 0000.0001) PTRACERS_advScheme = /* Advection Scheme */
(PID.TID 0000.0001)                      33
(PID.TID 0000.0001)     ;
(PID.TID 0000.0001) PTRACERS_SOM_Advection = /* tracer uses SOM advection scheme */
(PID.TID 0000.0001)                   F
(PID.TID 0000.0001)     ;
(PID.TID 0000.0001) PTRACERS_ImplVertAdv = /* implicit vert. advection flag */
(PID.TID 0000.0001)                   F
(PID.TID 0000.0001)     ;
(PID.TID 0000.0001) PTRACERS_MultiDimAdv = /* tracer uses Multi-Dim advection */
(PID.TID 0000.0001)                   T
(PID.TID 0000.0001)     ;
(PID.TID 0000.0001) PTRACERS_AdamsBashGtr = /* apply AB on tracer tendency */
(PID.TID 0000.0001)                   F
(PID.TID 0000.0001)     ;
(PID.TID 0000.0001) PTRACERS_AdamsBash_Tr = /* apply AB on passive tracer */
(PID.TID 0000.0001)                   F
(PID.TID 0000.0001)     ;
(PID.TID 0000.0001) PTRACERS_diffKh = /* Laplacian Diffusivity */
(PID.TID 0000.0001)                 0.000000000000000E+00
(PID.TID 0000.0001)     ;
(PID.TID 0000.0001) PTRACERS_diffK4 = /* Biharmonic Diffusivity */
(PID.TID 0000.0001)                 0.000000000000000E+00
(PID.TID 0000.0001)     ;
(PID.TID 0000.0001) PTRACERS_diffKrNr = /* Vertical Diffusivity */
(PID.TID 0000.0001)    35 @  1.000000000000000E-05              /* K =  1: 35 */
(PID.TID 0000.0001)     ;
(PID.TID 0000.0001) PTRACERS_useGMRedi = /* apply GM-Redi */
(PID.TID 0000.0001)                   F
(PID.TID 0000.0001)     ;
(PID.TID 0000.0001) PTRACERS_useDWNSLP = /* apply DOWN-SLOPE Flow */
(PID.TID 0000.0001)                   F
(PID.TID 0000.0001)     ;
(PID.TID 0000.0001) PTRACERS_useKPP = /* apply KPP scheme */
(PID.TID 0000.0001)                   T
(PID.TID 0000.0001)     ;
(PID.TID 0000.0001) PTRACERS_ref = /* Reference vertical profile */
(PID.TID 0000.0001)    35 @  0.000000000000000E+00              /* K =  1: 35 */
(PID.TID 0000.0001)     ;
(PID.TID 0000.0001) PTRACERS_EvPrRn =/* tracer conc. in Evap. & Rain */
(PID.TID 0000.0001)                 1.234567000000000E+05
(PID.TID 0000.0001)     ;
(PID.TID 0000.0001)  -----------------------------------
(PID.TID 0000.0001)  tracer number :  122
(PID.TID 0000.0001) PTRACERS_names = /* Tracer short name */
(PID.TID 0000.0001)               'p27'
(PID.TID 0000.0001)     ;
(PID.TID 0000.0001) PTRACERS_long_names = /* Tracer long name */
(PID.TID 0000.0001)               ''
(PID.TID 0000.0001)     ;
(PID.TID 0000.0001) PTRACERS_ioLabel = /* tracer IO Label */
(PID.TID 0000.0001)               '0w'
(PID.TID 0000.0001)     ;
(PID.TID 0000.0001) PTRACERS_advScheme = /* Advection Scheme */
(PID.TID 0000.0001)                      33
(PID.TID 0000.0001)     ;
(PID.TID 0000.0001) PTRACERS_SOM_Advection = /* tracer uses SOM advection scheme */
(PID.TID 0000.0001)                   F
(PID.TID 0000.0001)     ;
(PID.TID 0000.0001) PTRACERS_ImplVertAdv = /* implicit vert. advection flag */
(PID.TID 0000.0001)                   F
(PID.TID 0000.0001)     ;
(PID.TID 0000.0001) PTRACERS_MultiDimAdv = /* tracer uses Multi-Dim advection */
(PID.TID 0000.0001)                   T
(PID.TID 0000.0001)     ;
(PID.TID 0000.0001) PTRACERS_AdamsBashGtr = /* apply AB on tracer tendency */
(PID.TID 0000.0001)                   F
(PID.TID 0000.0001)     ;
(PID.TID 0000.0001) PTRACERS_AdamsBash_Tr = /* apply AB on passive tracer */
(PID.TID 0000.0001)                   F
(PID.TID 0000.0001)     ;
(PID.TID 0000.0001) PTRACERS_diffKh = /* Laplacian Diffusivity */
(PID.TID 0000.0001)                 0.000000000000000E+00
(PID.TID 0000.0001)     ;
(PID.TID 0000.0001) PTRACERS_diffK4 = /* Biharmonic Diffusivity */
(PID.TID 0000.0001)                 0.000000000000000E+00
(PID.TID 0000.0001)     ;
(PID.TID 0000.0001) PTRACERS_diffKrNr = /* Vertical Diffusivity */
(PID.TID 0000.0001)    35 @  1.000000000000000E-05              /* K =  1: 35 */
(PID.TID 0000.0001)     ;
(PID.TID 0000.0001) PTRACERS_useGMRedi = /* apply GM-Redi */
(PID.TID 0000.0001)                   F
(PID.TID 0000.0001)     ;
(PID.TID 0000.0001) PTRACERS_useDWNSLP = /* apply DOWN-SLOPE Flow */
(PID.TID 0000.0001)                   F
(PID.TID 0000.0001)     ;
(PID.TID 0000.0001) PTRACERS_useKPP = /* apply KPP scheme */
(PID.TID 0000.0001)                   T
(PID.TID 0000.0001)     ;
(PID.TID 0000.0001) PTRACERS_ref = /* Reference vertical profile */
(PID.TID 0000.0001)    35 @  0.000000000000000E+00              /* K =  1: 35 */
(PID.TID 0000.0001)     ;
(PID.TID 0000.0001) PTRACERS_EvPrRn =/* tracer conc. in Evap. & Rain */
(PID.TID 0000.0001)                 1.234567000000000E+05
(PID.TID 0000.0001)     ;
(PID.TID 0000.0001)  -----------------------------------
(PID.TID 0000.0001)  tracer number :  123
(PID.TID 0000.0001) PTRACERS_names = /* Tracer short name */
(PID.TID 0000.0001)               'p28'
(PID.TID 0000.0001)     ;
(PID.TID 0000.0001) PTRACERS_long_names = /* Tracer long name */
(PID.TID 0000.0001)               ''
(PID.TID 0000.0001)     ;
(PID.TID 0000.0001) PTRACERS_ioLabel = /* tracer IO Label */
(PID.TID 0000.0001)               '0x'
(PID.TID 0000.0001)     ;
(PID.TID 0000.0001) PTRACERS_advScheme = /* Advection Scheme */
(PID.TID 0000.0001)                      33
(PID.TID 0000.0001)     ;
(PID.TID 0000.0001) PTRACERS_SOM_Advection = /* tracer uses SOM advection scheme */
(PID.TID 0000.0001)                   F
(PID.TID 0000.0001)     ;
(PID.TID 0000.0001) PTRACERS_ImplVertAdv = /* implicit vert. advection flag */
(PID.TID 0000.0001)                   F
(PID.TID 0000.0001)     ;
(PID.TID 0000.0001) PTRACERS_MultiDimAdv = /* tracer uses Multi-Dim advection */
(PID.TID 0000.0001)                   T
(PID.TID 0000.0001)     ;
(PID.TID 0000.0001) PTRACERS_AdamsBashGtr = /* apply AB on tracer tendency */
(PID.TID 0000.0001)                   F
(PID.TID 0000.0001)     ;
(PID.TID 0000.0001) PTRACERS_AdamsBash_Tr = /* apply AB on passive tracer */
(PID.TID 0000.0001)                   F
(PID.TID 0000.0001)     ;
(PID.TID 0000.0001) PTRACERS_diffKh = /* Laplacian Diffusivity */
(PID.TID 0000.0001)                 0.000000000000000E+00
(PID.TID 0000.0001)     ;
(PID.TID 0000.0001) PTRACERS_diffK4 = /* Biharmonic Diffusivity */
(PID.TID 0000.0001)                 0.000000000000000E+00
(PID.TID 0000.0001)     ;
(PID.TID 0000.0001) PTRACERS_diffKrNr = /* Vertical Diffusivity */
(PID.TID 0000.0001)    35 @  1.000000000000000E-05              /* K =  1: 35 */
(PID.TID 0000.0001)     ;
(PID.TID 0000.0001) PTRACERS_useGMRedi = /* apply GM-Redi */
(PID.TID 0000.0001)                   F
(PID.TID 0000.0001)     ;
(PID.TID 0000.0001) PTRACERS_useDWNSLP = /* apply DOWN-SLOPE Flow */
(PID.TID 0000.0001)                   F
(PID.TID 0000.0001)     ;
(PID.TID 0000.0001) PTRACERS_useKPP = /* apply KPP scheme */
(PID.TID 0000.0001)                   T
(PID.TID 0000.0001)     ;
(PID.TID 0000.0001) PTRACERS_ref = /* Reference vertical profile */
(PID.TID 0000.0001)    35 @  0.000000000000000E+00              /* K =  1: 35 */
(PID.TID 0000.0001)     ;
(PID.TID 0000.0001) PTRACERS_EvPrRn =/* tracer conc. in Evap. & Rain */
(PID.TID 0000.0001)                 1.234567000000000E+05
(PID.TID 0000.0001)     ;
(PID.TID 0000.0001)  -----------------------------------
(PID.TID 0000.0001)  tracer number :  124
(PID.TID 0000.0001) PTRACERS_names = /* Tracer short name */
(PID.TID 0000.0001)               'p29'
(PID.TID 0000.0001)     ;
(PID.TID 0000.0001) PTRACERS_long_names = /* Tracer long name */
(PID.TID 0000.0001)               ''
(PID.TID 0000.0001)     ;
(PID.TID 0000.0001) PTRACERS_ioLabel = /* tracer IO Label */
(PID.TID 0000.0001)               '0y'
(PID.TID 0000.0001)     ;
(PID.TID 0000.0001) PTRACERS_advScheme = /* Advection Scheme */
(PID.TID 0000.0001)                      33
(PID.TID 0000.0001)     ;
(PID.TID 0000.0001) PTRACERS_SOM_Advection = /* tracer uses SOM advection scheme */
(PID.TID 0000.0001)                   F
(PID.TID 0000.0001)     ;
(PID.TID 0000.0001) PTRACERS_ImplVertAdv = /* implicit vert. advection flag */
(PID.TID 0000.0001)                   F
(PID.TID 0000.0001)     ;
(PID.TID 0000.0001) PTRACERS_MultiDimAdv = /* tracer uses Multi-Dim advection */
(PID.TID 0000.0001)                   T
(PID.TID 0000.0001)     ;
(PID.TID 0000.0001) PTRACERS_AdamsBashGtr = /* apply AB on tracer tendency */
(PID.TID 0000.0001)                   F
(PID.TID 0000.0001)     ;
(PID.TID 0000.0001) PTRACERS_AdamsBash_Tr = /* apply AB on passive tracer */
(PID.TID 0000.0001)                   F
(PID.TID 0000.0001)     ;
(PID.TID 0000.0001) PTRACERS_diffKh = /* Laplacian Diffusivity */
(PID.TID 0000.0001)                 0.000000000000000E+00
(PID.TID 0000.0001)     ;
(PID.TID 0000.0001) PTRACERS_diffK4 = /* Biharmonic Diffusivity */
(PID.TID 0000.0001)                 0.000000000000000E+00
(PID.TID 0000.0001)     ;
(PID.TID 0000.0001) PTRACERS_diffKrNr = /* Vertical Diffusivity */
(PID.TID 0000.0001)    35 @  1.000000000000000E-05              /* K =  1: 35 */
(PID.TID 0000.0001)     ;
(PID.TID 0000.0001) PTRACERS_useGMRedi = /* apply GM-Redi */
(PID.TID 0000.0001)                   F
(PID.TID 0000.0001)     ;
(PID.TID 0000.0001) PTRACERS_useDWNSLP = /* apply DOWN-SLOPE Flow */
(PID.TID 0000.0001)                   F
(PID.TID 0000.0001)     ;
(PID.TID 0000.0001) PTRACERS_useKPP = /* apply KPP scheme */
(PID.TID 0000.0001)                   T
(PID.TID 0000.0001)     ;
(PID.TID 0000.0001) PTRACERS_ref = /* Reference vertical profile */
(PID.TID 0000.0001)    35 @  0.000000000000000E+00              /* K =  1: 35 */
(PID.TID 0000.0001)     ;
(PID.TID 0000.0001) PTRACERS_EvPrRn =/* tracer conc. in Evap. & Rain */
(PID.TID 0000.0001)                 1.234567000000000E+05
(PID.TID 0000.0001)     ;
(PID.TID 0000.0001)  -----------------------------------
(PID.TID 0000.0001)  tracer number :  125
(PID.TID 0000.0001) PTRACERS_names = /* Tracer short name */
(PID.TID 0000.0001)               'p30'
(PID.TID 0000.0001)     ;
(PID.TID 0000.0001) PTRACERS_long_names = /* Tracer long name */
(PID.TID 0000.0001)               ''
(PID.TID 0000.0001)     ;
(PID.TID 0000.0001) PTRACERS_ioLabel = /* tracer IO Label */
(PID.TID 0000.0001)               '0z'
(PID.TID 0000.0001)     ;
(PID.TID 0000.0001) PTRACERS_advScheme = /* Advection Scheme */
(PID.TID 0000.0001)                      33
(PID.TID 0000.0001)     ;
(PID.TID 0000.0001) PTRACERS_SOM_Advection = /* tracer uses SOM advection scheme */
(PID.TID 0000.0001)                   F
(PID.TID 0000.0001)     ;
(PID.TID 0000.0001) PTRACERS_ImplVertAdv = /* implicit vert. advection flag */
(PID.TID 0000.0001)                   F
(PID.TID 0000.0001)     ;
(PID.TID 0000.0001) PTRACERS_MultiDimAdv = /* tracer uses Multi-Dim advection */
(PID.TID 0000.0001)                   T
(PID.TID 0000.0001)     ;
(PID.TID 0000.0001) PTRACERS_AdamsBashGtr = /* apply AB on tracer tendency */
(PID.TID 0000.0001)                   F
(PID.TID 0000.0001)     ;
(PID.TID 0000.0001) PTRACERS_AdamsBash_Tr = /* apply AB on passive tracer */
(PID.TID 0000.0001)                   F
(PID.TID 0000.0001)     ;
(PID.TID 0000.0001) PTRACERS_diffKh = /* Laplacian Diffusivity */
(PID.TID 0000.0001)                 0.000000000000000E+00
(PID.TID 0000.0001)     ;
(PID.TID 0000.0001) PTRACERS_diffK4 = /* Biharmonic Diffusivity */
(PID.TID 0000.0001)                 0.000000000000000E+00
(PID.TID 0000.0001)     ;
(PID.TID 0000.0001) PTRACERS_diffKrNr = /* Vertical Diffusivity */
(PID.TID 0000.0001)    35 @  1.000000000000000E-05              /* K =  1: 35 */
(PID.TID 0000.0001)     ;
(PID.TID 0000.0001) PTRACERS_useGMRedi = /* apply GM-Redi */
(PID.TID 0000.0001)                   F
(PID.TID 0000.0001)     ;
(PID.TID 0000.0001) PTRACERS_useDWNSLP = /* apply DOWN-SLOPE Flow */
(PID.TID 0000.0001)                   F
(PID.TID 0000.0001)     ;
(PID.TID 0000.0001) PTRACERS_useKPP = /* apply KPP scheme */
(PID.TID 0000.0001)                   T
(PID.TID 0000.0001)     ;
(PID.TID 0000.0001) PTRACERS_ref = /* Reference vertical profile */
(PID.TID 0000.0001)    35 @  0.000000000000000E+00              /* K =  1: 35 */
(PID.TID 0000.0001)     ;
(PID.TID 0000.0001) PTRACERS_EvPrRn =/* tracer conc. in Evap. & Rain */
(PID.TID 0000.0001)                 1.234567000000000E+05
(PID.TID 0000.0001)     ;
(PID.TID 0000.0001)  -----------------------------------
(PID.TID 0000.0001)  tracer number :  126
(PID.TID 0000.0001) PTRACERS_names = /* Tracer short name */
(PID.TID 0000.0001)               'p31'
(PID.TID 0000.0001)     ;
(PID.TID 0000.0001) PTRACERS_long_names = /* Tracer long name */
(PID.TID 0000.0001)               ''
(PID.TID 0000.0001)     ;
(PID.TID 0000.0001) PTRACERS_ioLabel = /* tracer IO Label */
(PID.TID 0000.0001)               '0A'
(PID.TID 0000.0001)     ;
(PID.TID 0000.0001) PTRACERS_advScheme = /* Advection Scheme */
(PID.TID 0000.0001)                      33
(PID.TID 0000.0001)     ;
(PID.TID 0000.0001) PTRACERS_SOM_Advection = /* tracer uses SOM advection scheme */
(PID.TID 0000.0001)                   F
(PID.TID 0000.0001)     ;
(PID.TID 0000.0001) PTRACERS_ImplVertAdv = /* implicit vert. advection flag */
(PID.TID 0000.0001)                   F
(PID.TID 0000.0001)     ;
(PID.TID 0000.0001) PTRACERS_MultiDimAdv = /* tracer uses Multi-Dim advection */
(PID.TID 0000.0001)                   T
(PID.TID 0000.0001)     ;
(PID.TID 0000.0001) PTRACERS_AdamsBashGtr = /* apply AB on tracer tendency */
(PID.TID 0000.0001)                   F
(PID.TID 0000.0001)     ;
(PID.TID 0000.0001) PTRACERS_AdamsBash_Tr = /* apply AB on passive tracer */
(PID.TID 0000.0001)                   F
(PID.TID 0000.0001)     ;
(PID.TID 0000.0001) PTRACERS_diffKh = /* Laplacian Diffusivity */
(PID.TID 0000.0001)                 0.000000000000000E+00
(PID.TID 0000.0001)     ;
(PID.TID 0000.0001) PTRACERS_diffK4 = /* Biharmonic Diffusivity */
(PID.TID 0000.0001)                 0.000000000000000E+00
(PID.TID 0000.0001)     ;
(PID.TID 0000.0001) PTRACERS_diffKrNr = /* Vertical Diffusivity */
(PID.TID 0000.0001)    35 @  1.000000000000000E-05              /* K =  1: 35 */
(PID.TID 0000.0001)     ;
(PID.TID 0000.0001) PTRACERS_useGMRedi = /* apply GM-Redi */
(PID.TID 0000.0001)                   F
(PID.TID 0000.0001)     ;
(PID.TID 0000.0001) PTRACERS_useDWNSLP = /* apply DOWN-SLOPE Flow */
(PID.TID 0000.0001)                   F
(PID.TID 0000.0001)     ;
(PID.TID 0000.0001) PTRACERS_useKPP = /* apply KPP scheme */
(PID.TID 0000.0001)                   T
(PID.TID 0000.0001)     ;
(PID.TID 0000.0001) PTRACERS_ref = /* Reference vertical profile */
(PID.TID 0000.0001)    35 @  0.000000000000000E+00              /* K =  1: 35 */
(PID.TID 0000.0001)     ;
(PID.TID 0000.0001) PTRACERS_EvPrRn =/* tracer conc. in Evap. & Rain */
(PID.TID 0000.0001)                 1.234567000000000E+05
(PID.TID 0000.0001)     ;
(PID.TID 0000.0001)  -----------------------------------
(PID.TID 0000.0001)  tracer number :  127
(PID.TID 0000.0001) PTRACERS_names = /* Tracer short name */
(PID.TID 0000.0001)               'p32'
(PID.TID 0000.0001)     ;
(PID.TID 0000.0001) PTRACERS_long_names = /* Tracer long name */
(PID.TID 0000.0001)               ''
(PID.TID 0000.0001)     ;
(PID.TID 0000.0001) PTRACERS_ioLabel = /* tracer IO Label */
(PID.TID 0000.0001)               '0B'
(PID.TID 0000.0001)     ;
(PID.TID 0000.0001) PTRACERS_advScheme = /* Advection Scheme */
(PID.TID 0000.0001)                      33
(PID.TID 0000.0001)     ;
(PID.TID 0000.0001) PTRACERS_SOM_Advection = /* tracer uses SOM advection scheme */
(PID.TID 0000.0001)                   F
(PID.TID 0000.0001)     ;
(PID.TID 0000.0001) PTRACERS_ImplVertAdv = /* implicit vert. advection flag */
(PID.TID 0000.0001)                   F
(PID.TID 0000.0001)     ;
(PID.TID 0000.0001) PTRACERS_MultiDimAdv = /* tracer uses Multi-Dim advection */
(PID.TID 0000.0001)                   T
(PID.TID 0000.0001)     ;
(PID.TID 0000.0001) PTRACERS_AdamsBashGtr = /* apply AB on tracer tendency */
(PID.TID 0000.0001)                   F
(PID.TID 0000.0001)     ;
(PID.TID 0000.0001) PTRACERS_AdamsBash_Tr = /* apply AB on passive tracer */
(PID.TID 0000.0001)                   F
(PID.TID 0000.0001)     ;
(PID.TID 0000.0001) PTRACERS_diffKh = /* Laplacian Diffusivity */
(PID.TID 0000.0001)                 0.000000000000000E+00
(PID.TID 0000.0001)     ;
(PID.TID 0000.0001) PTRACERS_diffK4 = /* Biharmonic Diffusivity */
(PID.TID 0000.0001)                 0.000000000000000E+00
(PID.TID 0000.0001)     ;
(PID.TID 0000.0001) PTRACERS_diffKrNr = /* Vertical Diffusivity */
(PID.TID 0000.0001)    35 @  1.000000000000000E-05              /* K =  1: 35 */
(PID.TID 0000.0001)     ;
(PID.TID 0000.0001) PTRACERS_useGMRedi = /* apply GM-Redi */
(PID.TID 0000.0001)                   F
(PID.TID 0000.0001)     ;
(PID.TID 0000.0001) PTRACERS_useDWNSLP = /* apply DOWN-SLOPE Flow */
(PID.TID 0000.0001)                   F
(PID.TID 0000.0001)     ;
(PID.TID 0000.0001) PTRACERS_useKPP = /* apply KPP scheme */
(PID.TID 0000.0001)                   T
(PID.TID 0000.0001)     ;
(PID.TID 0000.0001) PTRACERS_ref = /* Reference vertical profile */
(PID.TID 0000.0001)    35 @  0.000000000000000E+00              /* K =  1: 35 */
(PID.TID 0000.0001)     ;
(PID.TID 0000.0001) PTRACERS_EvPrRn =/* tracer conc. in Evap. & Rain */
(PID.TID 0000.0001)                 1.234567000000000E+05
(PID.TID 0000.0001)     ;
(PID.TID 0000.0001)  -----------------------------------
(PID.TID 0000.0001)  tracer number :  128
(PID.TID 0000.0001) PTRACERS_names = /* Tracer short name */
(PID.TID 0000.0001)               'p33'
(PID.TID 0000.0001)     ;
(PID.TID 0000.0001) PTRACERS_long_names = /* Tracer long name */
(PID.TID 0000.0001)               ''
(PID.TID 0000.0001)     ;
(PID.TID 0000.0001) PTRACERS_ioLabel = /* tracer IO Label */
(PID.TID 0000.0001)               '0C'
(PID.TID 0000.0001)     ;
(PID.TID 0000.0001) PTRACERS_advScheme = /* Advection Scheme */
(PID.TID 0000.0001)                      33
(PID.TID 0000.0001)     ;
(PID.TID 0000.0001) PTRACERS_SOM_Advection = /* tracer uses SOM advection scheme */
(PID.TID 0000.0001)                   F
(PID.TID 0000.0001)     ;
(PID.TID 0000.0001) PTRACERS_ImplVertAdv = /* implicit vert. advection flag */
(PID.TID 0000.0001)                   F
(PID.TID 0000.0001)     ;
(PID.TID 0000.0001) PTRACERS_MultiDimAdv = /* tracer uses Multi-Dim advection */
(PID.TID 0000.0001)                   T
(PID.TID 0000.0001)     ;
(PID.TID 0000.0001) PTRACERS_AdamsBashGtr = /* apply AB on tracer tendency */
(PID.TID 0000.0001)                   F
(PID.TID 0000.0001)     ;
(PID.TID 0000.0001) PTRACERS_AdamsBash_Tr = /* apply AB on passive tracer */
(PID.TID 0000.0001)                   F
(PID.TID 0000.0001)     ;
(PID.TID 0000.0001) PTRACERS_diffKh = /* Laplacian Diffusivity */
(PID.TID 0000.0001)                 0.000000000000000E+00
(PID.TID 0000.0001)     ;
(PID.TID 0000.0001) PTRACERS_diffK4 = /* Biharmonic Diffusivity */
(PID.TID 0000.0001)                 0.000000000000000E+00
(PID.TID 0000.0001)     ;
(PID.TID 0000.0001) PTRACERS_diffKrNr = /* Vertical Diffusivity */
(PID.TID 0000.0001)    35 @  1.000000000000000E-05              /* K =  1: 35 */
(PID.TID 0000.0001)     ;
(PID.TID 0000.0001) PTRACERS_useGMRedi = /* apply GM-Redi */
(PID.TID 0000.0001)                   F
(PID.TID 0000.0001)     ;
(PID.TID 0000.0001) PTRACERS_useDWNSLP = /* apply DOWN-SLOPE Flow */
(PID.TID 0000.0001)                   F
(PID.TID 0000.0001)     ;
(PID.TID 0000.0001) PTRACERS_useKPP = /* apply KPP scheme */
(PID.TID 0000.0001)                   T
(PID.TID 0000.0001)     ;
(PID.TID 0000.0001) PTRACERS_ref = /* Reference vertical profile */
(PID.TID 0000.0001)    35 @  0.000000000000000E+00              /* K =  1: 35 */
(PID.TID 0000.0001)     ;
(PID.TID 0000.0001) PTRACERS_EvPrRn =/* tracer conc. in Evap. & Rain */
(PID.TID 0000.0001)                 1.234567000000000E+05
(PID.TID 0000.0001)     ;
(PID.TID 0000.0001)  -----------------------------------
(PID.TID 0000.0001)  tracer number :  129
(PID.TID 0000.0001) PTRACERS_names = /* Tracer short name */
(PID.TID 0000.0001)               'p34'
(PID.TID 0000.0001)     ;
(PID.TID 0000.0001) PTRACERS_long_names = /* Tracer long name */
(PID.TID 0000.0001)               ''
(PID.TID 0000.0001)     ;
(PID.TID 0000.0001) PTRACERS_ioLabel = /* tracer IO Label */
(PID.TID 0000.0001)               '0D'
(PID.TID 0000.0001)     ;
(PID.TID 0000.0001) PTRACERS_advScheme = /* Advection Scheme */
(PID.TID 0000.0001)                      33
(PID.TID 0000.0001)     ;
(PID.TID 0000.0001) PTRACERS_SOM_Advection = /* tracer uses SOM advection scheme */
(PID.TID 0000.0001)                   F
(PID.TID 0000.0001)     ;
(PID.TID 0000.0001) PTRACERS_ImplVertAdv = /* implicit vert. advection flag */
(PID.TID 0000.0001)                   F
(PID.TID 0000.0001)     ;
(PID.TID 0000.0001) PTRACERS_MultiDimAdv = /* tracer uses Multi-Dim advection */
(PID.TID 0000.0001)                   T
(PID.TID 0000.0001)     ;
(PID.TID 0000.0001) PTRACERS_AdamsBashGtr = /* apply AB on tracer tendency */
(PID.TID 0000.0001)                   F
(PID.TID 0000.0001)     ;
(PID.TID 0000.0001) PTRACERS_AdamsBash_Tr = /* apply AB on passive tracer */
(PID.TID 0000.0001)                   F
(PID.TID 0000.0001)     ;
(PID.TID 0000.0001) PTRACERS_diffKh = /* Laplacian Diffusivity */
(PID.TID 0000.0001)                 0.000000000000000E+00
(PID.TID 0000.0001)     ;
(PID.TID 0000.0001) PTRACERS_diffK4 = /* Biharmonic Diffusivity */
(PID.TID 0000.0001)                 0.000000000000000E+00
(PID.TID 0000.0001)     ;
(PID.TID 0000.0001) PTRACERS_diffKrNr = /* Vertical Diffusivity */
(PID.TID 0000.0001)    35 @  1.000000000000000E-05              /* K =  1: 35 */
(PID.TID 0000.0001)     ;
(PID.TID 0000.0001) PTRACERS_useGMRedi = /* apply GM-Redi */
(PID.TID 0000.0001)                   F
(PID.TID 0000.0001)     ;
(PID.TID 0000.0001) PTRACERS_useDWNSLP = /* apply DOWN-SLOPE Flow */
(PID.TID 0000.0001)                   F
(PID.TID 0000.0001)     ;
(PID.TID 0000.0001) PTRACERS_useKPP = /* apply KPP scheme */
(PID.TID 0000.0001)                   T
(PID.TID 0000.0001)     ;
(PID.TID 0000.0001) PTRACERS_ref = /* Reference vertical profile */
(PID.TID 0000.0001)    35 @  0.000000000000000E+00              /* K =  1: 35 */
(PID.TID 0000.0001)     ;
(PID.TID 0000.0001) PTRACERS_EvPrRn =/* tracer conc. in Evap. & Rain */
(PID.TID 0000.0001)                 1.234567000000000E+05
(PID.TID 0000.0001)     ;
(PID.TID 0000.0001)  -----------------------------------
(PID.TID 0000.0001)  tracer number :  130
(PID.TID 0000.0001) PTRACERS_names = /* Tracer short name */
(PID.TID 0000.0001)               'p35'
(PID.TID 0000.0001)     ;
(PID.TID 0000.0001) PTRACERS_long_names = /* Tracer long name */
(PID.TID 0000.0001)               ''
(PID.TID 0000.0001)     ;
(PID.TID 0000.0001) PTRACERS_ioLabel = /* tracer IO Label */
(PID.TID 0000.0001)               '0E'
(PID.TID 0000.0001)     ;
(PID.TID 0000.0001) PTRACERS_advScheme = /* Advection Scheme */
(PID.TID 0000.0001)                      33
(PID.TID 0000.0001)     ;
(PID.TID 0000.0001) PTRACERS_SOM_Advection = /* tracer uses SOM advection scheme */
(PID.TID 0000.0001)                   F
(PID.TID 0000.0001)     ;
(PID.TID 0000.0001) PTRACERS_ImplVertAdv = /* implicit vert. advection flag */
(PID.TID 0000.0001)                   F
(PID.TID 0000.0001)     ;
(PID.TID 0000.0001) PTRACERS_MultiDimAdv = /* tracer uses Multi-Dim advection */
(PID.TID 0000.0001)                   T
(PID.TID 0000.0001)     ;
(PID.TID 0000.0001) PTRACERS_AdamsBashGtr = /* apply AB on tracer tendency */
(PID.TID 0000.0001)                   F
(PID.TID 0000.0001)     ;
(PID.TID 0000.0001) PTRACERS_AdamsBash_Tr = /* apply AB on passive tracer */
(PID.TID 0000.0001)                   F
(PID.TID 0000.0001)     ;
(PID.TID 0000.0001) PTRACERS_diffKh = /* Laplacian Diffusivity */
(PID.TID 0000.0001)                 0.000000000000000E+00
(PID.TID 0000.0001)     ;
(PID.TID 0000.0001) PTRACERS_diffK4 = /* Biharmonic Diffusivity */
(PID.TID 0000.0001)                 0.000000000000000E+00
(PID.TID 0000.0001)     ;
(PID.TID 0000.0001) PTRACERS_diffKrNr = /* Vertical Diffusivity */
(PID.TID 0000.0001)    35 @  1.000000000000000E-05              /* K =  1: 35 */
(PID.TID 0000.0001)     ;
(PID.TID 0000.0001) PTRACERS_useGMRedi = /* apply GM-Redi */
(PID.TID 0000.0001)                   F
(PID.TID 0000.0001)     ;
(PID.TID 0000.0001) PTRACERS_useDWNSLP = /* apply DOWN-SLOPE Flow */
(PID.TID 0000.0001)                   F
(PID.TID 0000.0001)     ;
(PID.TID 0000.0001) PTRACERS_useKPP = /* apply KPP scheme */
(PID.TID 0000.0001)                   T
(PID.TID 0000.0001)     ;
(PID.TID 0000.0001) PTRACERS_ref = /* Reference vertical profile */
(PID.TID 0000.0001)    35 @  0.000000000000000E+00              /* K =  1: 35 */
(PID.TID 0000.0001)     ;
(PID.TID 0000.0001) PTRACERS_EvPrRn =/* tracer conc. in Evap. & Rain */
(PID.TID 0000.0001)                 1.234567000000000E+05
(PID.TID 0000.0001)     ;
(PID.TID 0000.0001)  -----------------------------------
(PID.TID 0000.0001)  tracer number :  131
(PID.TID 0000.0001) PTRACERS_names = /* Tracer short name */
(PID.TID 0000.0001)               'p36'
(PID.TID 0000.0001)     ;
(PID.TID 0000.0001) PTRACERS_long_names = /* Tracer long name */
(PID.TID 0000.0001)               ''
(PID.TID 0000.0001)     ;
(PID.TID 0000.0001) PTRACERS_ioLabel = /* tracer IO Label */
(PID.TID 0000.0001)               '0F'
(PID.TID 0000.0001)     ;
(PID.TID 0000.0001) PTRACERS_advScheme = /* Advection Scheme */
(PID.TID 0000.0001)                      33
(PID.TID 0000.0001)     ;
(PID.TID 0000.0001) PTRACERS_SOM_Advection = /* tracer uses SOM advection scheme */
(PID.TID 0000.0001)                   F
(PID.TID 0000.0001)     ;
(PID.TID 0000.0001) PTRACERS_ImplVertAdv = /* implicit vert. advection flag */
(PID.TID 0000.0001)                   F
(PID.TID 0000.0001)     ;
(PID.TID 0000.0001) PTRACERS_MultiDimAdv = /* tracer uses Multi-Dim advection */
(PID.TID 0000.0001)                   T
(PID.TID 0000.0001)     ;
(PID.TID 0000.0001) PTRACERS_AdamsBashGtr = /* apply AB on tracer tendency */
(PID.TID 0000.0001)                   F
(PID.TID 0000.0001)     ;
(PID.TID 0000.0001) PTRACERS_AdamsBash_Tr = /* apply AB on passive tracer */
(PID.TID 0000.0001)                   F
(PID.TID 0000.0001)     ;
(PID.TID 0000.0001) PTRACERS_diffKh = /* Laplacian Diffusivity */
(PID.TID 0000.0001)                 0.000000000000000E+00
(PID.TID 0000.0001)     ;
(PID.TID 0000.0001) PTRACERS_diffK4 = /* Biharmonic Diffusivity */
(PID.TID 0000.0001)                 0.000000000000000E+00
(PID.TID 0000.0001)     ;
(PID.TID 0000.0001) PTRACERS_diffKrNr = /* Vertical Diffusivity */
(PID.TID 0000.0001)    35 @  1.000000000000000E-05              /* K =  1: 35 */
(PID.TID 0000.0001)     ;
(PID.TID 0000.0001) PTRACERS_useGMRedi = /* apply GM-Redi */
(PID.TID 0000.0001)                   F
(PID.TID 0000.0001)     ;
(PID.TID 0000.0001) PTRACERS_useDWNSLP = /* apply DOWN-SLOPE Flow */
(PID.TID 0000.0001)                   F
(PID.TID 0000.0001)     ;
(PID.TID 0000.0001) PTRACERS_useKPP = /* apply KPP scheme */
(PID.TID 0000.0001)                   T
(PID.TID 0000.0001)     ;
(PID.TID 0000.0001) PTRACERS_ref = /* Reference vertical profile */
(PID.TID 0000.0001)    35 @  0.000000000000000E+00              /* K =  1: 35 */
(PID.TID 0000.0001)     ;
(PID.TID 0000.0001) PTRACERS_EvPrRn =/* tracer conc. in Evap. & Rain */
(PID.TID 0000.0001)                 1.234567000000000E+05
(PID.TID 0000.0001)     ;
(PID.TID 0000.0001)  -----------------------------------
(PID.TID 0000.0001)  tracer number :  132
(PID.TID 0000.0001) PTRACERS_names = /* Tracer short name */
(PID.TID 0000.0001)               'p37'
(PID.TID 0000.0001)     ;
(PID.TID 0000.0001) PTRACERS_long_names = /* Tracer long name */
(PID.TID 0000.0001)               ''
(PID.TID 0000.0001)     ;
(PID.TID 0000.0001) PTRACERS_ioLabel = /* tracer IO Label */
(PID.TID 0000.0001)               '0G'
(PID.TID 0000.0001)     ;
(PID.TID 0000.0001) PTRACERS_advScheme = /* Advection Scheme */
(PID.TID 0000.0001)                      33
(PID.TID 0000.0001)     ;
(PID.TID 0000.0001) PTRACERS_SOM_Advection = /* tracer uses SOM advection scheme */
(PID.TID 0000.0001)                   F
(PID.TID 0000.0001)     ;
(PID.TID 0000.0001) PTRACERS_ImplVertAdv = /* implicit vert. advection flag */
(PID.TID 0000.0001)                   F
(PID.TID 0000.0001)     ;
(PID.TID 0000.0001) PTRACERS_MultiDimAdv = /* tracer uses Multi-Dim advection */
(PID.TID 0000.0001)                   T
(PID.TID 0000.0001)     ;
(PID.TID 0000.0001) PTRACERS_AdamsBashGtr = /* apply AB on tracer tendency */
(PID.TID 0000.0001)                   F
(PID.TID 0000.0001)     ;
(PID.TID 0000.0001) PTRACERS_AdamsBash_Tr = /* apply AB on passive tracer */
(PID.TID 0000.0001)                   F
(PID.TID 0000.0001)     ;
(PID.TID 0000.0001) PTRACERS_diffKh = /* Laplacian Diffusivity */
(PID.TID 0000.0001)                 0.000000000000000E+00
(PID.TID 0000.0001)     ;
(PID.TID 0000.0001) PTRACERS_diffK4 = /* Biharmonic Diffusivity */
(PID.TID 0000.0001)                 0.000000000000000E+00
(PID.TID 0000.0001)     ;
(PID.TID 0000.0001) PTRACERS_diffKrNr = /* Vertical Diffusivity */
(PID.TID 0000.0001)    35 @  1.000000000000000E-05              /* K =  1: 35 */
(PID.TID 0000.0001)     ;
(PID.TID 0000.0001) PTRACERS_useGMRedi = /* apply GM-Redi */
(PID.TID 0000.0001)                   F
(PID.TID 0000.0001)     ;
(PID.TID 0000.0001) PTRACERS_useDWNSLP = /* apply DOWN-SLOPE Flow */
(PID.TID 0000.0001)                   F
(PID.TID 0000.0001)     ;
(PID.TID 0000.0001) PTRACERS_useKPP = /* apply KPP scheme */
(PID.TID 0000.0001)                   T
(PID.TID 0000.0001)     ;
(PID.TID 0000.0001) PTRACERS_ref = /* Reference vertical profile */
(PID.TID 0000.0001)    35 @  0.000000000000000E+00              /* K =  1: 35 */
(PID.TID 0000.0001)     ;
(PID.TID 0000.0001) PTRACERS_EvPrRn =/* tracer conc. in Evap. & Rain */
(PID.TID 0000.0001)                 1.234567000000000E+05
(PID.TID 0000.0001)     ;
(PID.TID 0000.0001)  -----------------------------------
(PID.TID 0000.0001)  tracer number :  133
(PID.TID 0000.0001) PTRACERS_names = /* Tracer short name */
(PID.TID 0000.0001)               'p38'
(PID.TID 0000.0001)     ;
(PID.TID 0000.0001) PTRACERS_long_names = /* Tracer long name */
(PID.TID 0000.0001)               ''
(PID.TID 0000.0001)     ;
(PID.TID 0000.0001) PTRACERS_ioLabel = /* tracer IO Label */
(PID.TID 0000.0001)               '0H'
(PID.TID 0000.0001)     ;
(PID.TID 0000.0001) PTRACERS_advScheme = /* Advection Scheme */
(PID.TID 0000.0001)                      33
(PID.TID 0000.0001)     ;
(PID.TID 0000.0001) PTRACERS_SOM_Advection = /* tracer uses SOM advection scheme */
(PID.TID 0000.0001)                   F
(PID.TID 0000.0001)     ;
(PID.TID 0000.0001) PTRACERS_ImplVertAdv = /* implicit vert. advection flag */
(PID.TID 0000.0001)                   F
(PID.TID 0000.0001)     ;
(PID.TID 0000.0001) PTRACERS_MultiDimAdv = /* tracer uses Multi-Dim advection */
(PID.TID 0000.0001)                   T
(PID.TID 0000.0001)     ;
(PID.TID 0000.0001) PTRACERS_AdamsBashGtr = /* apply AB on tracer tendency */
(PID.TID 0000.0001)                   F
(PID.TID 0000.0001)     ;
(PID.TID 0000.0001) PTRACERS_AdamsBash_Tr = /* apply AB on passive tracer */
(PID.TID 0000.0001)                   F
(PID.TID 0000.0001)     ;
(PID.TID 0000.0001) PTRACERS_diffKh = /* Laplacian Diffusivity */
(PID.TID 0000.0001)                 0.000000000000000E+00
(PID.TID 0000.0001)     ;
(PID.TID 0000.0001) PTRACERS_diffK4 = /* Biharmonic Diffusivity */
(PID.TID 0000.0001)                 0.000000000000000E+00
(PID.TID 0000.0001)     ;
(PID.TID 0000.0001) PTRACERS_diffKrNr = /* Vertical Diffusivity */
(PID.TID 0000.0001)    35 @  1.000000000000000E-05              /* K =  1: 35 */
(PID.TID 0000.0001)     ;
(PID.TID 0000.0001) PTRACERS_useGMRedi = /* apply GM-Redi */
(PID.TID 0000.0001)                   F
(PID.TID 0000.0001)     ;
(PID.TID 0000.0001) PTRACERS_useDWNSLP = /* apply DOWN-SLOPE Flow */
(PID.TID 0000.0001)                   F
(PID.TID 0000.0001)     ;
(PID.TID 0000.0001) PTRACERS_useKPP = /* apply KPP scheme */
(PID.TID 0000.0001)                   T
(PID.TID 0000.0001)     ;
(PID.TID 0000.0001) PTRACERS_ref = /* Reference vertical profile */
(PID.TID 0000.0001)    35 @  0.000000000000000E+00              /* K =  1: 35 */
(PID.TID 0000.0001)     ;
(PID.TID 0000.0001) PTRACERS_EvPrRn =/* tracer conc. in Evap. & Rain */
(PID.TID 0000.0001)                 1.234567000000000E+05
(PID.TID 0000.0001)     ;
(PID.TID 0000.0001)  -----------------------------------
(PID.TID 0000.0001)  tracer number :  134
(PID.TID 0000.0001) PTRACERS_names = /* Tracer short name */
(PID.TID 0000.0001)               'fe01'
(PID.TID 0000.0001)     ;
(PID.TID 0000.0001) PTRACERS_long_names = /* Tracer long name */
(PID.TID 0000.0001)               ''
(PID.TID 0000.0001)     ;
(PID.TID 0000.0001) PTRACERS_ioLabel = /* tracer IO Label */
(PID.TID 0000.0001)               '0I'
(PID.TID 0000.0001)     ;
(PID.TID 0000.0001) PTRACERS_advScheme = /* Advection Scheme */
(PID.TID 0000.0001)                      33
(PID.TID 0000.0001)     ;
(PID.TID 0000.0001) PTRACERS_SOM_Advection = /* tracer uses SOM advection scheme */
(PID.TID 0000.0001)                   F
(PID.TID 0000.0001)     ;
(PID.TID 0000.0001) PTRACERS_ImplVertAdv = /* implicit vert. advection flag */
(PID.TID 0000.0001)                   F
(PID.TID 0000.0001)     ;
(PID.TID 0000.0001) PTRACERS_MultiDimAdv = /* tracer uses Multi-Dim advection */
(PID.TID 0000.0001)                   T
(PID.TID 0000.0001)     ;
(PID.TID 0000.0001) PTRACERS_AdamsBashGtr = /* apply AB on tracer tendency */
(PID.TID 0000.0001)                   F
(PID.TID 0000.0001)     ;
(PID.TID 0000.0001) PTRACERS_AdamsBash_Tr = /* apply AB on passive tracer */
(PID.TID 0000.0001)                   F
(PID.TID 0000.0001)     ;
(PID.TID 0000.0001) PTRACERS_diffKh = /* Laplacian Diffusivity */
(PID.TID 0000.0001)                 0.000000000000000E+00
(PID.TID 0000.0001)     ;
(PID.TID 0000.0001) PTRACERS_diffK4 = /* Biharmonic Diffusivity */
(PID.TID 0000.0001)                 0.000000000000000E+00
(PID.TID 0000.0001)     ;
(PID.TID 0000.0001) PTRACERS_diffKrNr = /* Vertical Diffusivity */
(PID.TID 0000.0001)    35 @  1.000000000000000E-05              /* K =  1: 35 */
(PID.TID 0000.0001)     ;
(PID.TID 0000.0001) PTRACERS_useGMRedi = /* apply GM-Redi */
(PID.TID 0000.0001)                   F
(PID.TID 0000.0001)     ;
(PID.TID 0000.0001) PTRACERS_useDWNSLP = /* apply DOWN-SLOPE Flow */
(PID.TID 0000.0001)                   F
(PID.TID 0000.0001)     ;
(PID.TID 0000.0001) PTRACERS_useKPP = /* apply KPP scheme */
(PID.TID 0000.0001)                   T
(PID.TID 0000.0001)     ;
(PID.TID 0000.0001) PTRACERS_ref = /* Reference vertical profile */
(PID.TID 0000.0001)    35 @  0.000000000000000E+00              /* K =  1: 35 */
(PID.TID 0000.0001)     ;
(PID.TID 0000.0001) PTRACERS_EvPrRn =/* tracer conc. in Evap. & Rain */
(PID.TID 0000.0001)                 1.234567000000000E+05
(PID.TID 0000.0001)     ;
(PID.TID 0000.0001)  -----------------------------------
(PID.TID 0000.0001)  tracer number :  135
(PID.TID 0000.0001) PTRACERS_names = /* Tracer short name */
(PID.TID 0000.0001)               'fe02'
(PID.TID 0000.0001)     ;
(PID.TID 0000.0001) PTRACERS_long_names = /* Tracer long name */
(PID.TID 0000.0001)               ''
(PID.TID 0000.0001)     ;
(PID.TID 0000.0001) PTRACERS_ioLabel = /* tracer IO Label */
(PID.TID 0000.0001)               '0J'
(PID.TID 0000.0001)     ;
(PID.TID 0000.0001) PTRACERS_advScheme = /* Advection Scheme */
(PID.TID 0000.0001)                      33
(PID.TID 0000.0001)     ;
(PID.TID 0000.0001) PTRACERS_SOM_Advection = /* tracer uses SOM advection scheme */
(PID.TID 0000.0001)                   F
(PID.TID 0000.0001)     ;
(PID.TID 0000.0001) PTRACERS_ImplVertAdv = /* implicit vert. advection flag */
(PID.TID 0000.0001)                   F
(PID.TID 0000.0001)     ;
(PID.TID 0000.0001) PTRACERS_MultiDimAdv = /* tracer uses Multi-Dim advection */
(PID.TID 0000.0001)                   T
(PID.TID 0000.0001)     ;
(PID.TID 0000.0001) PTRACERS_AdamsBashGtr = /* apply AB on tracer tendency */
(PID.TID 0000.0001)                   F
(PID.TID 0000.0001)     ;
(PID.TID 0000.0001) PTRACERS_AdamsBash_Tr = /* apply AB on passive tracer */
(PID.TID 0000.0001)                   F
(PID.TID 0000.0001)     ;
(PID.TID 0000.0001) PTRACERS_diffKh = /* Laplacian Diffusivity */
(PID.TID 0000.0001)                 0.000000000000000E+00
(PID.TID 0000.0001)     ;
(PID.TID 0000.0001) PTRACERS_diffK4 = /* Biharmonic Diffusivity */
(PID.TID 0000.0001)                 0.000000000000000E+00
(PID.TID 0000.0001)     ;
(PID.TID 0000.0001) PTRACERS_diffKrNr = /* Vertical Diffusivity */
(PID.TID 0000.0001)    35 @  1.000000000000000E-05              /* K =  1: 35 */
(PID.TID 0000.0001)     ;
(PID.TID 0000.0001) PTRACERS_useGMRedi = /* apply GM-Redi */
(PID.TID 0000.0001)                   F
(PID.TID 0000.0001)     ;
(PID.TID 0000.0001) PTRACERS_useDWNSLP = /* apply DOWN-SLOPE Flow */
(PID.TID 0000.0001)                   F
(PID.TID 0000.0001)     ;
(PID.TID 0000.0001) PTRACERS_useKPP = /* apply KPP scheme */
(PID.TID 0000.0001)                   T
(PID.TID 0000.0001)     ;
(PID.TID 0000.0001) PTRACERS_ref = /* Reference vertical profile */
(PID.TID 0000.0001)    35 @  0.000000000000000E+00              /* K =  1: 35 */
(PID.TID 0000.0001)     ;
(PID.TID 0000.0001) PTRACERS_EvPrRn =/* tracer conc. in Evap. & Rain */
(PID.TID 0000.0001)                 1.234567000000000E+05
(PID.TID 0000.0001)     ;
(PID.TID 0000.0001)  -----------------------------------
(PID.TID 0000.0001)  tracer number :  136
(PID.TID 0000.0001) PTRACERS_names = /* Tracer short name */
(PID.TID 0000.0001)               'fe03'
(PID.TID 0000.0001)     ;
(PID.TID 0000.0001) PTRACERS_long_names = /* Tracer long name */
(PID.TID 0000.0001)               ''
(PID.TID 0000.0001)     ;
(PID.TID 0000.0001) PTRACERS_ioLabel = /* tracer IO Label */
(PID.TID 0000.0001)               '0K'
(PID.TID 0000.0001)     ;
(PID.TID 0000.0001) PTRACERS_advScheme = /* Advection Scheme */
(PID.TID 0000.0001)                      33
(PID.TID 0000.0001)     ;
(PID.TID 0000.0001) PTRACERS_SOM_Advection = /* tracer uses SOM advection scheme */
(PID.TID 0000.0001)                   F
(PID.TID 0000.0001)     ;
(PID.TID 0000.0001) PTRACERS_ImplVertAdv = /* implicit vert. advection flag */
(PID.TID 0000.0001)                   F
(PID.TID 0000.0001)     ;
(PID.TID 0000.0001) PTRACERS_MultiDimAdv = /* tracer uses Multi-Dim advection */
(PID.TID 0000.0001)                   T
(PID.TID 0000.0001)     ;
(PID.TID 0000.0001) PTRACERS_AdamsBashGtr = /* apply AB on tracer tendency */
(PID.TID 0000.0001)                   F
(PID.TID 0000.0001)     ;
(PID.TID 0000.0001) PTRACERS_AdamsBash_Tr = /* apply AB on passive tracer */
(PID.TID 0000.0001)                   F
(PID.TID 0000.0001)     ;
(PID.TID 0000.0001) PTRACERS_diffKh = /* Laplacian Diffusivity */
(PID.TID 0000.0001)                 0.000000000000000E+00
(PID.TID 0000.0001)     ;
(PID.TID 0000.0001) PTRACERS_diffK4 = /* Biharmonic Diffusivity */
(PID.TID 0000.0001)                 0.000000000000000E+00
(PID.TID 0000.0001)     ;
(PID.TID 0000.0001) PTRACERS_diffKrNr = /* Vertical Diffusivity */
(PID.TID 0000.0001)    35 @  1.000000000000000E-05              /* K =  1: 35 */
(PID.TID 0000.0001)     ;
(PID.TID 0000.0001) PTRACERS_useGMRedi = /* apply GM-Redi */
(PID.TID 0000.0001)                   F
(PID.TID 0000.0001)     ;
(PID.TID 0000.0001) PTRACERS_useDWNSLP = /* apply DOWN-SLOPE Flow */
(PID.TID 0000.0001)                   F
(PID.TID 0000.0001)     ;
(PID.TID 0000.0001) PTRACERS_useKPP = /* apply KPP scheme */
(PID.TID 0000.0001)                   T
(PID.TID 0000.0001)     ;
(PID.TID 0000.0001) PTRACERS_ref = /* Reference vertical profile */
(PID.TID 0000.0001)    35 @  0.000000000000000E+00              /* K =  1: 35 */
(PID.TID 0000.0001)     ;
(PID.TID 0000.0001) PTRACERS_EvPrRn =/* tracer conc. in Evap. & Rain */
(PID.TID 0000.0001)                 1.234567000000000E+05
(PID.TID 0000.0001)     ;
(PID.TID 0000.0001)  -----------------------------------
(PID.TID 0000.0001)  tracer number :  137
(PID.TID 0000.0001) PTRACERS_names = /* Tracer short name */
(PID.TID 0000.0001)               'fe04'
(PID.TID 0000.0001)     ;
(PID.TID 0000.0001) PTRACERS_long_names = /* Tracer long name */
(PID.TID 0000.0001)               ''
(PID.TID 0000.0001)     ;
(PID.TID 0000.0001) PTRACERS_ioLabel = /* tracer IO Label */
(PID.TID 0000.0001)               '0L'
(PID.TID 0000.0001)     ;
(PID.TID 0000.0001) PTRACERS_advScheme = /* Advection Scheme */
(PID.TID 0000.0001)                      33
(PID.TID 0000.0001)     ;
(PID.TID 0000.0001) PTRACERS_SOM_Advection = /* tracer uses SOM advection scheme */
(PID.TID 0000.0001)                   F
(PID.TID 0000.0001)     ;
(PID.TID 0000.0001) PTRACERS_ImplVertAdv = /* implicit vert. advection flag */
(PID.TID 0000.0001)                   F
(PID.TID 0000.0001)     ;
(PID.TID 0000.0001) PTRACERS_MultiDimAdv = /* tracer uses Multi-Dim advection */
(PID.TID 0000.0001)                   T
(PID.TID 0000.0001)     ;
(PID.TID 0000.0001) PTRACERS_AdamsBashGtr = /* apply AB on tracer tendency */
(PID.TID 0000.0001)                   F
(PID.TID 0000.0001)     ;
(PID.TID 0000.0001) PTRACERS_AdamsBash_Tr = /* apply AB on passive tracer */
(PID.TID 0000.0001)                   F
(PID.TID 0000.0001)     ;
(PID.TID 0000.0001) PTRACERS_diffKh = /* Laplacian Diffusivity */
(PID.TID 0000.0001)                 0.000000000000000E+00
(PID.TID 0000.0001)     ;
(PID.TID 0000.0001) PTRACERS_diffK4 = /* Biharmonic Diffusivity */
(PID.TID 0000.0001)                 0.000000000000000E+00
(PID.TID 0000.0001)     ;
(PID.TID 0000.0001) PTRACERS_diffKrNr = /* Vertical Diffusivity */
(PID.TID 0000.0001)    35 @  1.000000000000000E-05              /* K =  1: 35 */
(PID.TID 0000.0001)     ;
(PID.TID 0000.0001) PTRACERS_useGMRedi = /* apply GM-Redi */
(PID.TID 0000.0001)                   F
(PID.TID 0000.0001)     ;
(PID.TID 0000.0001) PTRACERS_useDWNSLP = /* apply DOWN-SLOPE Flow */
(PID.TID 0000.0001)                   F
(PID.TID 0000.0001)     ;
(PID.TID 0000.0001) PTRACERS_useKPP = /* apply KPP scheme */
(PID.TID 0000.0001)                   T
(PID.TID 0000.0001)     ;
(PID.TID 0000.0001) PTRACERS_ref = /* Reference vertical profile */
(PID.TID 0000.0001)    35 @  0.000000000000000E+00              /* K =  1: 35 */
(PID.TID 0000.0001)     ;
(PID.TID 0000.0001) PTRACERS_EvPrRn =/* tracer conc. in Evap. & Rain */
(PID.TID 0000.0001)                 1.234567000000000E+05
(PID.TID 0000.0001)     ;
(PID.TID 0000.0001)  -----------------------------------
(PID.TID 0000.0001)  tracer number :  138
(PID.TID 0000.0001) PTRACERS_names = /* Tracer short name */
(PID.TID 0000.0001)               'fe05'
(PID.TID 0000.0001)     ;
(PID.TID 0000.0001) PTRACERS_long_names = /* Tracer long name */
(PID.TID 0000.0001)               ''
(PID.TID 0000.0001)     ;
(PID.TID 0000.0001) PTRACERS_ioLabel = /* tracer IO Label */
(PID.TID 0000.0001)               '0M'
(PID.TID 0000.0001)     ;
(PID.TID 0000.0001) PTRACERS_advScheme = /* Advection Scheme */
(PID.TID 0000.0001)                      33
(PID.TID 0000.0001)     ;
(PID.TID 0000.0001) PTRACERS_SOM_Advection = /* tracer uses SOM advection scheme */
(PID.TID 0000.0001)                   F
(PID.TID 0000.0001)     ;
(PID.TID 0000.0001) PTRACERS_ImplVertAdv = /* implicit vert. advection flag */
(PID.TID 0000.0001)                   F
(PID.TID 0000.0001)     ;
(PID.TID 0000.0001) PTRACERS_MultiDimAdv = /* tracer uses Multi-Dim advection */
(PID.TID 0000.0001)                   T
(PID.TID 0000.0001)     ;
(PID.TID 0000.0001) PTRACERS_AdamsBashGtr = /* apply AB on tracer tendency */
(PID.TID 0000.0001)                   F
(PID.TID 0000.0001)     ;
(PID.TID 0000.0001) PTRACERS_AdamsBash_Tr = /* apply AB on passive tracer */
(PID.TID 0000.0001)                   F
(PID.TID 0000.0001)     ;
(PID.TID 0000.0001) PTRACERS_diffKh = /* Laplacian Diffusivity */
(PID.TID 0000.0001)                 0.000000000000000E+00
(PID.TID 0000.0001)     ;
(PID.TID 0000.0001) PTRACERS_diffK4 = /* Biharmonic Diffusivity */
(PID.TID 0000.0001)                 0.000000000000000E+00
(PID.TID 0000.0001)     ;
(PID.TID 0000.0001) PTRACERS_diffKrNr = /* Vertical Diffusivity */
(PID.TID 0000.0001)    35 @  1.000000000000000E-05              /* K =  1: 35 */
(PID.TID 0000.0001)     ;
(PID.TID 0000.0001) PTRACERS_useGMRedi = /* apply GM-Redi */
(PID.TID 0000.0001)                   F
(PID.TID 0000.0001)     ;
(PID.TID 0000.0001) PTRACERS_useDWNSLP = /* apply DOWN-SLOPE Flow */
(PID.TID 0000.0001)                   F
(PID.TID 0000.0001)     ;
(PID.TID 0000.0001) PTRACERS_useKPP = /* apply KPP scheme */
(PID.TID 0000.0001)                   T
(PID.TID 0000.0001)     ;
(PID.TID 0000.0001) PTRACERS_ref = /* Reference vertical profile */
(PID.TID 0000.0001)    35 @  0.000000000000000E+00              /* K =  1: 35 */
(PID.TID 0000.0001)     ;
(PID.TID 0000.0001) PTRACERS_EvPrRn =/* tracer conc. in Evap. & Rain */
(PID.TID 0000.0001)                 1.234567000000000E+05
(PID.TID 0000.0001)     ;
(PID.TID 0000.0001)  -----------------------------------
(PID.TID 0000.0001)  tracer number :  139
(PID.TID 0000.0001) PTRACERS_names = /* Tracer short name */
(PID.TID 0000.0001)               'fe06'
(PID.TID 0000.0001)     ;
(PID.TID 0000.0001) PTRACERS_long_names = /* Tracer long name */
(PID.TID 0000.0001)               ''
(PID.TID 0000.0001)     ;
(PID.TID 0000.0001) PTRACERS_ioLabel = /* tracer IO Label */
(PID.TID 0000.0001)               '0N'
(PID.TID 0000.0001)     ;
(PID.TID 0000.0001) PTRACERS_advScheme = /* Advection Scheme */
(PID.TID 0000.0001)                      33
(PID.TID 0000.0001)     ;
(PID.TID 0000.0001) PTRACERS_SOM_Advection = /* tracer uses SOM advection scheme */
(PID.TID 0000.0001)                   F
(PID.TID 0000.0001)     ;
(PID.TID 0000.0001) PTRACERS_ImplVertAdv = /* implicit vert. advection flag */
(PID.TID 0000.0001)                   F
(PID.TID 0000.0001)     ;
(PID.TID 0000.0001) PTRACERS_MultiDimAdv = /* tracer uses Multi-Dim advection */
(PID.TID 0000.0001)                   T
(PID.TID 0000.0001)     ;
(PID.TID 0000.0001) PTRACERS_AdamsBashGtr = /* apply AB on tracer tendency */
(PID.TID 0000.0001)                   F
(PID.TID 0000.0001)     ;
(PID.TID 0000.0001) PTRACERS_AdamsBash_Tr = /* apply AB on passive tracer */
(PID.TID 0000.0001)                   F
(PID.TID 0000.0001)     ;
(PID.TID 0000.0001) PTRACERS_diffKh = /* Laplacian Diffusivity */
(PID.TID 0000.0001)                 0.000000000000000E+00
(PID.TID 0000.0001)     ;
(PID.TID 0000.0001) PTRACERS_diffK4 = /* Biharmonic Diffusivity */
(PID.TID 0000.0001)                 0.000000000000000E+00
(PID.TID 0000.0001)     ;
(PID.TID 0000.0001) PTRACERS_diffKrNr = /* Vertical Diffusivity */
(PID.TID 0000.0001)    35 @  1.000000000000000E-05              /* K =  1: 35 */
(PID.TID 0000.0001)     ;
(PID.TID 0000.0001) PTRACERS_useGMRedi = /* apply GM-Redi */
(PID.TID 0000.0001)                   F
(PID.TID 0000.0001)     ;
(PID.TID 0000.0001) PTRACERS_useDWNSLP = /* apply DOWN-SLOPE Flow */
(PID.TID 0000.0001)                   F
(PID.TID 0000.0001)     ;
(PID.TID 0000.0001) PTRACERS_useKPP = /* apply KPP scheme */
(PID.TID 0000.0001)                   T
(PID.TID 0000.0001)     ;
(PID.TID 0000.0001) PTRACERS_ref = /* Reference vertical profile */
(PID.TID 0000.0001)    35 @  0.000000000000000E+00              /* K =  1: 35 */
(PID.TID 0000.0001)     ;
(PID.TID 0000.0001) PTRACERS_EvPrRn =/* tracer conc. in Evap. & Rain */
(PID.TID 0000.0001)                 1.234567000000000E+05
(PID.TID 0000.0001)     ;
(PID.TID 0000.0001)  -----------------------------------
(PID.TID 0000.0001)  tracer number :  140
(PID.TID 0000.0001) PTRACERS_names = /* Tracer short name */
(PID.TID 0000.0001)               'fe07'
(PID.TID 0000.0001)     ;
(PID.TID 0000.0001) PTRACERS_long_names = /* Tracer long name */
(PID.TID 0000.0001)               ''
(PID.TID 0000.0001)     ;
(PID.TID 0000.0001) PTRACERS_ioLabel = /* tracer IO Label */
(PID.TID 0000.0001)               '0O'
(PID.TID 0000.0001)     ;
(PID.TID 0000.0001) PTRACERS_advScheme = /* Advection Scheme */
(PID.TID 0000.0001)                      33
(PID.TID 0000.0001)     ;
(PID.TID 0000.0001) PTRACERS_SOM_Advection = /* tracer uses SOM advection scheme */
(PID.TID 0000.0001)                   F
(PID.TID 0000.0001)     ;
(PID.TID 0000.0001) PTRACERS_ImplVertAdv = /* implicit vert. advection flag */
(PID.TID 0000.0001)                   F
(PID.TID 0000.0001)     ;
(PID.TID 0000.0001) PTRACERS_MultiDimAdv = /* tracer uses Multi-Dim advection */
(PID.TID 0000.0001)                   T
(PID.TID 0000.0001)     ;
(PID.TID 0000.0001) PTRACERS_AdamsBashGtr = /* apply AB on tracer tendency */
(PID.TID 0000.0001)                   F
(PID.TID 0000.0001)     ;
(PID.TID 0000.0001) PTRACERS_AdamsBash_Tr = /* apply AB on passive tracer */
(PID.TID 0000.0001)                   F
(PID.TID 0000.0001)     ;
(PID.TID 0000.0001) PTRACERS_diffKh = /* Laplacian Diffusivity */
(PID.TID 0000.0001)                 0.000000000000000E+00
(PID.TID 0000.0001)     ;
(PID.TID 0000.0001) PTRACERS_diffK4 = /* Biharmonic Diffusivity */
(PID.TID 0000.0001)                 0.000000000000000E+00
(PID.TID 0000.0001)     ;
(PID.TID 0000.0001) PTRACERS_diffKrNr = /* Vertical Diffusivity */
(PID.TID 0000.0001)    35 @  1.000000000000000E-05              /* K =  1: 35 */
(PID.TID 0000.0001)     ;
(PID.TID 0000.0001) PTRACERS_useGMRedi = /* apply GM-Redi */
(PID.TID 0000.0001)                   F
(PID.TID 0000.0001)     ;
(PID.TID 0000.0001) PTRACERS_useDWNSLP = /* apply DOWN-SLOPE Flow */
(PID.TID 0000.0001)                   F
(PID.TID 0000.0001)     ;
(PID.TID 0000.0001) PTRACERS_useKPP = /* apply KPP scheme */
(PID.TID 0000.0001)                   T
(PID.TID 0000.0001)     ;
(PID.TID 0000.0001) PTRACERS_ref = /* Reference vertical profile */
(PID.TID 0000.0001)    35 @  0.000000000000000E+00              /* K =  1: 35 */
(PID.TID 0000.0001)     ;
(PID.TID 0000.0001) PTRACERS_EvPrRn =/* tracer conc. in Evap. & Rain */
(PID.TID 0000.0001)                 1.234567000000000E+05
(PID.TID 0000.0001)     ;
(PID.TID 0000.0001)  -----------------------------------
(PID.TID 0000.0001)  tracer number :  141
(PID.TID 0000.0001) PTRACERS_names = /* Tracer short name */
(PID.TID 0000.0001)               'fe08'
(PID.TID 0000.0001)     ;
(PID.TID 0000.0001) PTRACERS_long_names = /* Tracer long name */
(PID.TID 0000.0001)               ''
(PID.TID 0000.0001)     ;
(PID.TID 0000.0001) PTRACERS_ioLabel = /* tracer IO Label */
(PID.TID 0000.0001)               '0P'
(PID.TID 0000.0001)     ;
(PID.TID 0000.0001) PTRACERS_advScheme = /* Advection Scheme */
(PID.TID 0000.0001)                      33
(PID.TID 0000.0001)     ;
(PID.TID 0000.0001) PTRACERS_SOM_Advection = /* tracer uses SOM advection scheme */
(PID.TID 0000.0001)                   F
(PID.TID 0000.0001)     ;
(PID.TID 0000.0001) PTRACERS_ImplVertAdv = /* implicit vert. advection flag */
(PID.TID 0000.0001)                   F
(PID.TID 0000.0001)     ;
(PID.TID 0000.0001) PTRACERS_MultiDimAdv = /* tracer uses Multi-Dim advection */
(PID.TID 0000.0001)                   T
(PID.TID 0000.0001)     ;
(PID.TID 0000.0001) PTRACERS_AdamsBashGtr = /* apply AB on tracer tendency */
(PID.TID 0000.0001)                   F
(PID.TID 0000.0001)     ;
(PID.TID 0000.0001) PTRACERS_AdamsBash_Tr = /* apply AB on passive tracer */
(PID.TID 0000.0001)                   F
(PID.TID 0000.0001)     ;
(PID.TID 0000.0001) PTRACERS_diffKh = /* Laplacian Diffusivity */
(PID.TID 0000.0001)                 0.000000000000000E+00
(PID.TID 0000.0001)     ;
(PID.TID 0000.0001) PTRACERS_diffK4 = /* Biharmonic Diffusivity */
(PID.TID 0000.0001)                 0.000000000000000E+00
(PID.TID 0000.0001)     ;
(PID.TID 0000.0001) PTRACERS_diffKrNr = /* Vertical Diffusivity */
(PID.TID 0000.0001)    35 @  1.000000000000000E-05              /* K =  1: 35 */
(PID.TID 0000.0001)     ;
(PID.TID 0000.0001) PTRACERS_useGMRedi = /* apply GM-Redi */
(PID.TID 0000.0001)                   F
(PID.TID 0000.0001)     ;
(PID.TID 0000.0001) PTRACERS_useDWNSLP = /* apply DOWN-SLOPE Flow */
(PID.TID 0000.0001)                   F
(PID.TID 0000.0001)     ;
(PID.TID 0000.0001) PTRACERS_useKPP = /* apply KPP scheme */
(PID.TID 0000.0001)                   T
(PID.TID 0000.0001)     ;
(PID.TID 0000.0001) PTRACERS_ref = /* Reference vertical profile */
(PID.TID 0000.0001)    35 @  0.000000000000000E+00              /* K =  1: 35 */
(PID.TID 0000.0001)     ;
(PID.TID 0000.0001) PTRACERS_EvPrRn =/* tracer conc. in Evap. & Rain */
(PID.TID 0000.0001)                 1.234567000000000E+05
(PID.TID 0000.0001)     ;
(PID.TID 0000.0001)  -----------------------------------
(PID.TID 0000.0001)  tracer number :  142
(PID.TID 0000.0001) PTRACERS_names = /* Tracer short name */
(PID.TID 0000.0001)               'fe09'
(PID.TID 0000.0001)     ;
(PID.TID 0000.0001) PTRACERS_long_names = /* Tracer long name */
(PID.TID 0000.0001)               ''
(PID.TID 0000.0001)     ;
(PID.TID 0000.0001) PTRACERS_ioLabel = /* tracer IO Label */
(PID.TID 0000.0001)               '0Q'
(PID.TID 0000.0001)     ;
(PID.TID 0000.0001) PTRACERS_advScheme = /* Advection Scheme */
(PID.TID 0000.0001)                      33
(PID.TID 0000.0001)     ;
(PID.TID 0000.0001) PTRACERS_SOM_Advection = /* tracer uses SOM advection scheme */
(PID.TID 0000.0001)                   F
(PID.TID 0000.0001)     ;
(PID.TID 0000.0001) PTRACERS_ImplVertAdv = /* implicit vert. advection flag */
(PID.TID 0000.0001)                   F
(PID.TID 0000.0001)     ;
(PID.TID 0000.0001) PTRACERS_MultiDimAdv = /* tracer uses Multi-Dim advection */
(PID.TID 0000.0001)                   T
(PID.TID 0000.0001)     ;
(PID.TID 0000.0001) PTRACERS_AdamsBashGtr = /* apply AB on tracer tendency */
(PID.TID 0000.0001)                   F
(PID.TID 0000.0001)     ;
(PID.TID 0000.0001) PTRACERS_AdamsBash_Tr = /* apply AB on passive tracer */
(PID.TID 0000.0001)                   F
(PID.TID 0000.0001)     ;
(PID.TID 0000.0001) PTRACERS_diffKh = /* Laplacian Diffusivity */
(PID.TID 0000.0001)                 0.000000000000000E+00
(PID.TID 0000.0001)     ;
(PID.TID 0000.0001) PTRACERS_diffK4 = /* Biharmonic Diffusivity */
(PID.TID 0000.0001)                 0.000000000000000E+00
(PID.TID 0000.0001)     ;
(PID.TID 0000.0001) PTRACERS_diffKrNr = /* Vertical Diffusivity */
(PID.TID 0000.0001)    35 @  1.000000000000000E-05              /* K =  1: 35 */
(PID.TID 0000.0001)     ;
(PID.TID 0000.0001) PTRACERS_useGMRedi = /* apply GM-Redi */
(PID.TID 0000.0001)                   F
(PID.TID 0000.0001)     ;
(PID.TID 0000.0001) PTRACERS_useDWNSLP = /* apply DOWN-SLOPE Flow */
(PID.TID 0000.0001)                   F
(PID.TID 0000.0001)     ;
(PID.TID 0000.0001) PTRACERS_useKPP = /* apply KPP scheme */
(PID.TID 0000.0001)                   T
(PID.TID 0000.0001)     ;
(PID.TID 0000.0001) PTRACERS_ref = /* Reference vertical profile */
(PID.TID 0000.0001)    35 @  0.000000000000000E+00              /* K =  1: 35 */
(PID.TID 0000.0001)     ;
(PID.TID 0000.0001) PTRACERS_EvPrRn =/* tracer conc. in Evap. & Rain */
(PID.TID 0000.0001)                 1.234567000000000E+05
(PID.TID 0000.0001)     ;
(PID.TID 0000.0001)  -----------------------------------
(PID.TID 0000.0001)  tracer number :  143
(PID.TID 0000.0001) PTRACERS_names = /* Tracer short name */
(PID.TID 0000.0001)               'fe10'
(PID.TID 0000.0001)     ;
(PID.TID 0000.0001) PTRACERS_long_names = /* Tracer long name */
(PID.TID 0000.0001)               ''
(PID.TID 0000.0001)     ;
(PID.TID 0000.0001) PTRACERS_ioLabel = /* tracer IO Label */
(PID.TID 0000.0001)               '0R'
(PID.TID 0000.0001)     ;
(PID.TID 0000.0001) PTRACERS_advScheme = /* Advection Scheme */
(PID.TID 0000.0001)                      33
(PID.TID 0000.0001)     ;
(PID.TID 0000.0001) PTRACERS_SOM_Advection = /* tracer uses SOM advection scheme */
(PID.TID 0000.0001)                   F
(PID.TID 0000.0001)     ;
(PID.TID 0000.0001) PTRACERS_ImplVertAdv = /* implicit vert. advection flag */
(PID.TID 0000.0001)                   F
(PID.TID 0000.0001)     ;
(PID.TID 0000.0001) PTRACERS_MultiDimAdv = /* tracer uses Multi-Dim advection */
(PID.TID 0000.0001)                   T
(PID.TID 0000.0001)     ;
(PID.TID 0000.0001) PTRACERS_AdamsBashGtr = /* apply AB on tracer tendency */
(PID.TID 0000.0001)                   F
(PID.TID 0000.0001)     ;
(PID.TID 0000.0001) PTRACERS_AdamsBash_Tr = /* apply AB on passive tracer */
(PID.TID 0000.0001)                   F
(PID.TID 0000.0001)     ;
(PID.TID 0000.0001) PTRACERS_diffKh = /* Laplacian Diffusivity */
(PID.TID 0000.0001)                 0.000000000000000E+00
(PID.TID 0000.0001)     ;
(PID.TID 0000.0001) PTRACERS_diffK4 = /* Biharmonic Diffusivity */
(PID.TID 0000.0001)                 0.000000000000000E+00
(PID.TID 0000.0001)     ;
(PID.TID 0000.0001) PTRACERS_diffKrNr = /* Vertical Diffusivity */
(PID.TID 0000.0001)    35 @  1.000000000000000E-05              /* K =  1: 35 */
(PID.TID 0000.0001)     ;
(PID.TID 0000.0001) PTRACERS_useGMRedi = /* apply GM-Redi */
(PID.TID 0000.0001)                   F
(PID.TID 0000.0001)     ;
(PID.TID 0000.0001) PTRACERS_useDWNSLP = /* apply DOWN-SLOPE Flow */
(PID.TID 0000.0001)                   F
(PID.TID 0000.0001)     ;
(PID.TID 0000.0001) PTRACERS_useKPP = /* apply KPP scheme */
(PID.TID 0000.0001)                   T
(PID.TID 0000.0001)     ;
(PID.TID 0000.0001) PTRACERS_ref = /* Reference vertical profile */
(PID.TID 0000.0001)    35 @  0.000000000000000E+00              /* K =  1: 35 */
(PID.TID 0000.0001)     ;
(PID.TID 0000.0001) PTRACERS_EvPrRn =/* tracer conc. in Evap. & Rain */
(PID.TID 0000.0001)                 1.234567000000000E+05
(PID.TID 0000.0001)     ;
(PID.TID 0000.0001)  -----------------------------------
(PID.TID 0000.0001)  tracer number :  144
(PID.TID 0000.0001) PTRACERS_names = /* Tracer short name */
(PID.TID 0000.0001)               'fe11'
(PID.TID 0000.0001)     ;
(PID.TID 0000.0001) PTRACERS_long_names = /* Tracer long name */
(PID.TID 0000.0001)               ''
(PID.TID 0000.0001)     ;
(PID.TID 0000.0001) PTRACERS_ioLabel = /* tracer IO Label */
(PID.TID 0000.0001)               '0S'
(PID.TID 0000.0001)     ;
(PID.TID 0000.0001) PTRACERS_advScheme = /* Advection Scheme */
(PID.TID 0000.0001)                      33
(PID.TID 0000.0001)     ;
(PID.TID 0000.0001) PTRACERS_SOM_Advection = /* tracer uses SOM advection scheme */
(PID.TID 0000.0001)                   F
(PID.TID 0000.0001)     ;
(PID.TID 0000.0001) PTRACERS_ImplVertAdv = /* implicit vert. advection flag */
(PID.TID 0000.0001)                   F
(PID.TID 0000.0001)     ;
(PID.TID 0000.0001) PTRACERS_MultiDimAdv = /* tracer uses Multi-Dim advection */
(PID.TID 0000.0001)                   T
(PID.TID 0000.0001)     ;
(PID.TID 0000.0001) PTRACERS_AdamsBashGtr = /* apply AB on tracer tendency */
(PID.TID 0000.0001)                   F
(PID.TID 0000.0001)     ;
(PID.TID 0000.0001) PTRACERS_AdamsBash_Tr = /* apply AB on passive tracer */
(PID.TID 0000.0001)                   F
(PID.TID 0000.0001)     ;
(PID.TID 0000.0001) PTRACERS_diffKh = /* Laplacian Diffusivity */
(PID.TID 0000.0001)                 0.000000000000000E+00
(PID.TID 0000.0001)     ;
(PID.TID 0000.0001) PTRACERS_diffK4 = /* Biharmonic Diffusivity */
(PID.TID 0000.0001)                 0.000000000000000E+00
(PID.TID 0000.0001)     ;
(PID.TID 0000.0001) PTRACERS_diffKrNr = /* Vertical Diffusivity */
(PID.TID 0000.0001)    35 @  1.000000000000000E-05              /* K =  1: 35 */
(PID.TID 0000.0001)     ;
(PID.TID 0000.0001) PTRACERS_useGMRedi = /* apply GM-Redi */
(PID.TID 0000.0001)                   F
(PID.TID 0000.0001)     ;
(PID.TID 0000.0001) PTRACERS_useDWNSLP = /* apply DOWN-SLOPE Flow */
(PID.TID 0000.0001)                   F
(PID.TID 0000.0001)     ;
(PID.TID 0000.0001) PTRACERS_useKPP = /* apply KPP scheme */
(PID.TID 0000.0001)                   T
(PID.TID 0000.0001)     ;
(PID.TID 0000.0001) PTRACERS_ref = /* Reference vertical profile */
(PID.TID 0000.0001)    35 @  0.000000000000000E+00              /* K =  1: 35 */
(PID.TID 0000.0001)     ;
(PID.TID 0000.0001) PTRACERS_EvPrRn =/* tracer conc. in Evap. & Rain */
(PID.TID 0000.0001)                 1.234567000000000E+05
(PID.TID 0000.0001)     ;
(PID.TID 0000.0001)  -----------------------------------
(PID.TID 0000.0001)  tracer number :  145
(PID.TID 0000.0001) PTRACERS_names = /* Tracer short name */
(PID.TID 0000.0001)               'fe12'
(PID.TID 0000.0001)     ;
(PID.TID 0000.0001) PTRACERS_long_names = /* Tracer long name */
(PID.TID 0000.0001)               ''
(PID.TID 0000.0001)     ;
(PID.TID 0000.0001) PTRACERS_ioLabel = /* tracer IO Label */
(PID.TID 0000.0001)               '0T'
(PID.TID 0000.0001)     ;
(PID.TID 0000.0001) PTRACERS_advScheme = /* Advection Scheme */
(PID.TID 0000.0001)                      33
(PID.TID 0000.0001)     ;
(PID.TID 0000.0001) PTRACERS_SOM_Advection = /* tracer uses SOM advection scheme */
(PID.TID 0000.0001)                   F
(PID.TID 0000.0001)     ;
(PID.TID 0000.0001) PTRACERS_ImplVertAdv = /* implicit vert. advection flag */
(PID.TID 0000.0001)                   F
(PID.TID 0000.0001)     ;
(PID.TID 0000.0001) PTRACERS_MultiDimAdv = /* tracer uses Multi-Dim advection */
(PID.TID 0000.0001)                   T
(PID.TID 0000.0001)     ;
(PID.TID 0000.0001) PTRACERS_AdamsBashGtr = /* apply AB on tracer tendency */
(PID.TID 0000.0001)                   F
(PID.TID 0000.0001)     ;
(PID.TID 0000.0001) PTRACERS_AdamsBash_Tr = /* apply AB on passive tracer */
(PID.TID 0000.0001)                   F
(PID.TID 0000.0001)     ;
(PID.TID 0000.0001) PTRACERS_diffKh = /* Laplacian Diffusivity */
(PID.TID 0000.0001)                 0.000000000000000E+00
(PID.TID 0000.0001)     ;
(PID.TID 0000.0001) PTRACERS_diffK4 = /* Biharmonic Diffusivity */
(PID.TID 0000.0001)                 0.000000000000000E+00
(PID.TID 0000.0001)     ;
(PID.TID 0000.0001) PTRACERS_diffKrNr = /* Vertical Diffusivity */
(PID.TID 0000.0001)    35 @  1.000000000000000E-05              /* K =  1: 35 */
(PID.TID 0000.0001)     ;
(PID.TID 0000.0001) PTRACERS_useGMRedi = /* apply GM-Redi */
(PID.TID 0000.0001)                   F
(PID.TID 0000.0001)     ;
(PID.TID 0000.0001) PTRACERS_useDWNSLP = /* apply DOWN-SLOPE Flow */
(PID.TID 0000.0001)                   F
(PID.TID 0000.0001)     ;
(PID.TID 0000.0001) PTRACERS_useKPP = /* apply KPP scheme */
(PID.TID 0000.0001)                   T
(PID.TID 0000.0001)     ;
(PID.TID 0000.0001) PTRACERS_ref = /* Reference vertical profile */
(PID.TID 0000.0001)    35 @  0.000000000000000E+00              /* K =  1: 35 */
(PID.TID 0000.0001)     ;
(PID.TID 0000.0001) PTRACERS_EvPrRn =/* tracer conc. in Evap. & Rain */
(PID.TID 0000.0001)                 1.234567000000000E+05
(PID.TID 0000.0001)     ;
(PID.TID 0000.0001)  -----------------------------------
(PID.TID 0000.0001)  tracer number :  146
(PID.TID 0000.0001) PTRACERS_names = /* Tracer short name */
(PID.TID 0000.0001)               'fe13'
(PID.TID 0000.0001)     ;
(PID.TID 0000.0001) PTRACERS_long_names = /* Tracer long name */
(PID.TID 0000.0001)               ''
(PID.TID 0000.0001)     ;
(PID.TID 0000.0001) PTRACERS_ioLabel = /* tracer IO Label */
(PID.TID 0000.0001)               '0U'
(PID.TID 0000.0001)     ;
(PID.TID 0000.0001) PTRACERS_advScheme = /* Advection Scheme */
(PID.TID 0000.0001)                      33
(PID.TID 0000.0001)     ;
(PID.TID 0000.0001) PTRACERS_SOM_Advection = /* tracer uses SOM advection scheme */
(PID.TID 0000.0001)                   F
(PID.TID 0000.0001)     ;
(PID.TID 0000.0001) PTRACERS_ImplVertAdv = /* implicit vert. advection flag */
(PID.TID 0000.0001)                   F
(PID.TID 0000.0001)     ;
(PID.TID 0000.0001) PTRACERS_MultiDimAdv = /* tracer uses Multi-Dim advection */
(PID.TID 0000.0001)                   T
(PID.TID 0000.0001)     ;
(PID.TID 0000.0001) PTRACERS_AdamsBashGtr = /* apply AB on tracer tendency */
(PID.TID 0000.0001)                   F
(PID.TID 0000.0001)     ;
(PID.TID 0000.0001) PTRACERS_AdamsBash_Tr = /* apply AB on passive tracer */
(PID.TID 0000.0001)                   F
(PID.TID 0000.0001)     ;
(PID.TID 0000.0001) PTRACERS_diffKh = /* Laplacian Diffusivity */
(PID.TID 0000.0001)                 0.000000000000000E+00
(PID.TID 0000.0001)     ;
(PID.TID 0000.0001) PTRACERS_diffK4 = /* Biharmonic Diffusivity */
(PID.TID 0000.0001)                 0.000000000000000E+00
(PID.TID 0000.0001)     ;
(PID.TID 0000.0001) PTRACERS_diffKrNr = /* Vertical Diffusivity */
(PID.TID 0000.0001)    35 @  1.000000000000000E-05              /* K =  1: 35 */
(PID.TID 0000.0001)     ;
(PID.TID 0000.0001) PTRACERS_useGMRedi = /* apply GM-Redi */
(PID.TID 0000.0001)                   F
(PID.TID 0000.0001)     ;
(PID.TID 0000.0001) PTRACERS_useDWNSLP = /* apply DOWN-SLOPE Flow */
(PID.TID 0000.0001)                   F
(PID.TID 0000.0001)     ;
(PID.TID 0000.0001) PTRACERS_useKPP = /* apply KPP scheme */
(PID.TID 0000.0001)                   T
(PID.TID 0000.0001)     ;
(PID.TID 0000.0001) PTRACERS_ref = /* Reference vertical profile */
(PID.TID 0000.0001)    35 @  0.000000000000000E+00              /* K =  1: 35 */
(PID.TID 0000.0001)     ;
(PID.TID 0000.0001) PTRACERS_EvPrRn =/* tracer conc. in Evap. & Rain */
(PID.TID 0000.0001)                 1.234567000000000E+05
(PID.TID 0000.0001)     ;
(PID.TID 0000.0001)  -----------------------------------
(PID.TID 0000.0001)  tracer number :  147
(PID.TID 0000.0001) PTRACERS_names = /* Tracer short name */
(PID.TID 0000.0001)               'fe14'
(PID.TID 0000.0001)     ;
(PID.TID 0000.0001) PTRACERS_long_names = /* Tracer long name */
(PID.TID 0000.0001)               ''
(PID.TID 0000.0001)     ;
(PID.TID 0000.0001) PTRACERS_ioLabel = /* tracer IO Label */
(PID.TID 0000.0001)               '0V'
(PID.TID 0000.0001)     ;
(PID.TID 0000.0001) PTRACERS_advScheme = /* Advection Scheme */
(PID.TID 0000.0001)                      33
(PID.TID 0000.0001)     ;
(PID.TID 0000.0001) PTRACERS_SOM_Advection = /* tracer uses SOM advection scheme */
(PID.TID 0000.0001)                   F
(PID.TID 0000.0001)     ;
(PID.TID 0000.0001) PTRACERS_ImplVertAdv = /* implicit vert. advection flag */
(PID.TID 0000.0001)                   F
(PID.TID 0000.0001)     ;
(PID.TID 0000.0001) PTRACERS_MultiDimAdv = /* tracer uses Multi-Dim advection */
(PID.TID 0000.0001)                   T
(PID.TID 0000.0001)     ;
(PID.TID 0000.0001) PTRACERS_AdamsBashGtr = /* apply AB on tracer tendency */
(PID.TID 0000.0001)                   F
(PID.TID 0000.0001)     ;
(PID.TID 0000.0001) PTRACERS_AdamsBash_Tr = /* apply AB on passive tracer */
(PID.TID 0000.0001)                   F
(PID.TID 0000.0001)     ;
(PID.TID 0000.0001) PTRACERS_diffKh = /* Laplacian Diffusivity */
(PID.TID 0000.0001)                 0.000000000000000E+00
(PID.TID 0000.0001)     ;
(PID.TID 0000.0001) PTRACERS_diffK4 = /* Biharmonic Diffusivity */
(PID.TID 0000.0001)                 0.000000000000000E+00
(PID.TID 0000.0001)     ;
(PID.TID 0000.0001) PTRACERS_diffKrNr = /* Vertical Diffusivity */
(PID.TID 0000.0001)    35 @  1.000000000000000E-05              /* K =  1: 35 */
(PID.TID 0000.0001)     ;
(PID.TID 0000.0001) PTRACERS_useGMRedi = /* apply GM-Redi */
(PID.TID 0000.0001)                   F
(PID.TID 0000.0001)     ;
(PID.TID 0000.0001) PTRACERS_useDWNSLP = /* apply DOWN-SLOPE Flow */
(PID.TID 0000.0001)                   F
(PID.TID 0000.0001)     ;
(PID.TID 0000.0001) PTRACERS_useKPP = /* apply KPP scheme */
(PID.TID 0000.0001)                   T
(PID.TID 0000.0001)     ;
(PID.TID 0000.0001) PTRACERS_ref = /* Reference vertical profile */
(PID.TID 0000.0001)    35 @  0.000000000000000E+00              /* K =  1: 35 */
(PID.TID 0000.0001)     ;
(PID.TID 0000.0001) PTRACERS_EvPrRn =/* tracer conc. in Evap. & Rain */
(PID.TID 0000.0001)                 1.234567000000000E+05
(PID.TID 0000.0001)     ;
(PID.TID 0000.0001)  -----------------------------------
(PID.TID 0000.0001)  tracer number :  148
(PID.TID 0000.0001) PTRACERS_names = /* Tracer short name */
(PID.TID 0000.0001)               'fe15'
(PID.TID 0000.0001)     ;
(PID.TID 0000.0001) PTRACERS_long_names = /* Tracer long name */
(PID.TID 0000.0001)               ''
(PID.TID 0000.0001)     ;
(PID.TID 0000.0001) PTRACERS_ioLabel = /* tracer IO Label */
(PID.TID 0000.0001)               '0W'
(PID.TID 0000.0001)     ;
(PID.TID 0000.0001) PTRACERS_advScheme = /* Advection Scheme */
(PID.TID 0000.0001)                      33
(PID.TID 0000.0001)     ;
(PID.TID 0000.0001) PTRACERS_SOM_Advection = /* tracer uses SOM advection scheme */
(PID.TID 0000.0001)                   F
(PID.TID 0000.0001)     ;
(PID.TID 0000.0001) PTRACERS_ImplVertAdv = /* implicit vert. advection flag */
(PID.TID 0000.0001)                   F
(PID.TID 0000.0001)     ;
(PID.TID 0000.0001) PTRACERS_MultiDimAdv = /* tracer uses Multi-Dim advection */
(PID.TID 0000.0001)                   T
(PID.TID 0000.0001)     ;
(PID.TID 0000.0001) PTRACERS_AdamsBashGtr = /* apply AB on tracer tendency */
(PID.TID 0000.0001)                   F
(PID.TID 0000.0001)     ;
(PID.TID 0000.0001) PTRACERS_AdamsBash_Tr = /* apply AB on passive tracer */
(PID.TID 0000.0001)                   F
(PID.TID 0000.0001)     ;
(PID.TID 0000.0001) PTRACERS_diffKh = /* Laplacian Diffusivity */
(PID.TID 0000.0001)                 0.000000000000000E+00
(PID.TID 0000.0001)     ;
(PID.TID 0000.0001) PTRACERS_diffK4 = /* Biharmonic Diffusivity */
(PID.TID 0000.0001)                 0.000000000000000E+00
(PID.TID 0000.0001)     ;
(PID.TID 0000.0001) PTRACERS_diffKrNr = /* Vertical Diffusivity */
(PID.TID 0000.0001)    35 @  1.000000000000000E-05              /* K =  1: 35 */
(PID.TID 0000.0001)     ;
(PID.TID 0000.0001) PTRACERS_useGMRedi = /* apply GM-Redi */
(PID.TID 0000.0001)                   F
(PID.TID 0000.0001)     ;
(PID.TID 0000.0001) PTRACERS_useDWNSLP = /* apply DOWN-SLOPE Flow */
(PID.TID 0000.0001)                   F
(PID.TID 0000.0001)     ;
(PID.TID 0000.0001) PTRACERS_useKPP = /* apply KPP scheme */
(PID.TID 0000.0001)                   T
(PID.TID 0000.0001)     ;
(PID.TID 0000.0001) PTRACERS_ref = /* Reference vertical profile */
(PID.TID 0000.0001)    35 @  0.000000000000000E+00              /* K =  1: 35 */
(PID.TID 0000.0001)     ;
(PID.TID 0000.0001) PTRACERS_EvPrRn =/* tracer conc. in Evap. & Rain */
(PID.TID 0000.0001)                 1.234567000000000E+05
(PID.TID 0000.0001)     ;
(PID.TID 0000.0001)  -----------------------------------
(PID.TID 0000.0001)  tracer number :  149
(PID.TID 0000.0001) PTRACERS_names = /* Tracer short name */
(PID.TID 0000.0001)               'fe16'
(PID.TID 0000.0001)     ;
(PID.TID 0000.0001) PTRACERS_long_names = /* Tracer long name */
(PID.TID 0000.0001)               ''
(PID.TID 0000.0001)     ;
(PID.TID 0000.0001) PTRACERS_ioLabel = /* tracer IO Label */
(PID.TID 0000.0001)               '0X'
(PID.TID 0000.0001)     ;
(PID.TID 0000.0001) PTRACERS_advScheme = /* Advection Scheme */
(PID.TID 0000.0001)                      33
(PID.TID 0000.0001)     ;
(PID.TID 0000.0001) PTRACERS_SOM_Advection = /* tracer uses SOM advection scheme */
(PID.TID 0000.0001)                   F
(PID.TID 0000.0001)     ;
(PID.TID 0000.0001) PTRACERS_ImplVertAdv = /* implicit vert. advection flag */
(PID.TID 0000.0001)                   F
(PID.TID 0000.0001)     ;
(PID.TID 0000.0001) PTRACERS_MultiDimAdv = /* tracer uses Multi-Dim advection */
(PID.TID 0000.0001)                   T
(PID.TID 0000.0001)     ;
(PID.TID 0000.0001) PTRACERS_AdamsBashGtr = /* apply AB on tracer tendency */
(PID.TID 0000.0001)                   F
(PID.TID 0000.0001)     ;
(PID.TID 0000.0001) PTRACERS_AdamsBash_Tr = /* apply AB on passive tracer */
(PID.TID 0000.0001)                   F
(PID.TID 0000.0001)     ;
(PID.TID 0000.0001) PTRACERS_diffKh = /* Laplacian Diffusivity */
(PID.TID 0000.0001)                 0.000000000000000E+00
(PID.TID 0000.0001)     ;
(PID.TID 0000.0001) PTRACERS_diffK4 = /* Biharmonic Diffusivity */
(PID.TID 0000.0001)                 0.000000000000000E+00
(PID.TID 0000.0001)     ;
(PID.TID 0000.0001) PTRACERS_diffKrNr = /* Vertical Diffusivity */
(PID.TID 0000.0001)    35 @  1.000000000000000E-05              /* K =  1: 35 */
(PID.TID 0000.0001)     ;
(PID.TID 0000.0001) PTRACERS_useGMRedi = /* apply GM-Redi */
(PID.TID 0000.0001)                   F
(PID.TID 0000.0001)     ;
(PID.TID 0000.0001) PTRACERS_useDWNSLP = /* apply DOWN-SLOPE Flow */
(PID.TID 0000.0001)                   F
(PID.TID 0000.0001)     ;
(PID.TID 0000.0001) PTRACERS_useKPP = /* apply KPP scheme */
(PID.TID 0000.0001)                   T
(PID.TID 0000.0001)     ;
(PID.TID 0000.0001) PTRACERS_ref = /* Reference vertical profile */
(PID.TID 0000.0001)    35 @  0.000000000000000E+00              /* K =  1: 35 */
(PID.TID 0000.0001)     ;
(PID.TID 0000.0001) PTRACERS_EvPrRn =/* tracer conc. in Evap. & Rain */
(PID.TID 0000.0001)                 1.234567000000000E+05
(PID.TID 0000.0001)     ;
(PID.TID 0000.0001)  -----------------------------------
(PID.TID 0000.0001)  tracer number :  150
(PID.TID 0000.0001) PTRACERS_names = /* Tracer short name */
(PID.TID 0000.0001)               'fe17'
(PID.TID 0000.0001)     ;
(PID.TID 0000.0001) PTRACERS_long_names = /* Tracer long name */
(PID.TID 0000.0001)               ''
(PID.TID 0000.0001)     ;
(PID.TID 0000.0001) PTRACERS_ioLabel = /* tracer IO Label */
(PID.TID 0000.0001)               '0Y'
(PID.TID 0000.0001)     ;
(PID.TID 0000.0001) PTRACERS_advScheme = /* Advection Scheme */
(PID.TID 0000.0001)                      33
(PID.TID 0000.0001)     ;
(PID.TID 0000.0001) PTRACERS_SOM_Advection = /* tracer uses SOM advection scheme */
(PID.TID 0000.0001)                   F
(PID.TID 0000.0001)     ;
(PID.TID 0000.0001) PTRACERS_ImplVertAdv = /* implicit vert. advection flag */
(PID.TID 0000.0001)                   F
(PID.TID 0000.0001)     ;
(PID.TID 0000.0001) PTRACERS_MultiDimAdv = /* tracer uses Multi-Dim advection */
(PID.TID 0000.0001)                   T
(PID.TID 0000.0001)     ;
(PID.TID 0000.0001) PTRACERS_AdamsBashGtr = /* apply AB on tracer tendency */
(PID.TID 0000.0001)                   F
(PID.TID 0000.0001)     ;
(PID.TID 0000.0001) PTRACERS_AdamsBash_Tr = /* apply AB on passive tracer */
(PID.TID 0000.0001)                   F
(PID.TID 0000.0001)     ;
(PID.TID 0000.0001) PTRACERS_diffKh = /* Laplacian Diffusivity */
(PID.TID 0000.0001)                 0.000000000000000E+00
(PID.TID 0000.0001)     ;
(PID.TID 0000.0001) PTRACERS_diffK4 = /* Biharmonic Diffusivity */
(PID.TID 0000.0001)                 0.000000000000000E+00
(PID.TID 0000.0001)     ;
(PID.TID 0000.0001) PTRACERS_diffKrNr = /* Vertical Diffusivity */
(PID.TID 0000.0001)    35 @  1.000000000000000E-05              /* K =  1: 35 */
(PID.TID 0000.0001)     ;
(PID.TID 0000.0001) PTRACERS_useGMRedi = /* apply GM-Redi */
(PID.TID 0000.0001)                   F
(PID.TID 0000.0001)     ;
(PID.TID 0000.0001) PTRACERS_useDWNSLP = /* apply DOWN-SLOPE Flow */
(PID.TID 0000.0001)                   F
(PID.TID 0000.0001)     ;
(PID.TID 0000.0001) PTRACERS_useKPP = /* apply KPP scheme */
(PID.TID 0000.0001)                   T
(PID.TID 0000.0001)     ;
(PID.TID 0000.0001) PTRACERS_ref = /* Reference vertical profile */
(PID.TID 0000.0001)    35 @  0.000000000000000E+00              /* K =  1: 35 */
(PID.TID 0000.0001)     ;
(PID.TID 0000.0001) PTRACERS_EvPrRn =/* tracer conc. in Evap. & Rain */
(PID.TID 0000.0001)                 1.234567000000000E+05
(PID.TID 0000.0001)     ;
(PID.TID 0000.0001)  -----------------------------------
(PID.TID 0000.0001)  tracer number :  151
(PID.TID 0000.0001) PTRACERS_names = /* Tracer short name */
(PID.TID 0000.0001)               'fe18'
(PID.TID 0000.0001)     ;
(PID.TID 0000.0001) PTRACERS_long_names = /* Tracer long name */
(PID.TID 0000.0001)               ''
(PID.TID 0000.0001)     ;
(PID.TID 0000.0001) PTRACERS_ioLabel = /* tracer IO Label */
(PID.TID 0000.0001)               '0Z'
(PID.TID 0000.0001)     ;
(PID.TID 0000.0001) PTRACERS_advScheme = /* Advection Scheme */
(PID.TID 0000.0001)                      33
(PID.TID 0000.0001)     ;
(PID.TID 0000.0001) PTRACERS_SOM_Advection = /* tracer uses SOM advection scheme */
(PID.TID 0000.0001)                   F
(PID.TID 0000.0001)     ;
(PID.TID 0000.0001) PTRACERS_ImplVertAdv = /* implicit vert. advection flag */
(PID.TID 0000.0001)                   F
(PID.TID 0000.0001)     ;
(PID.TID 0000.0001) PTRACERS_MultiDimAdv = /* tracer uses Multi-Dim advection */
(PID.TID 0000.0001)                   T
(PID.TID 0000.0001)     ;
(PID.TID 0000.0001) PTRACERS_AdamsBashGtr = /* apply AB on tracer tendency */
(PID.TID 0000.0001)                   F
(PID.TID 0000.0001)     ;
(PID.TID 0000.0001) PTRACERS_AdamsBash_Tr = /* apply AB on passive tracer */
(PID.TID 0000.0001)                   F
(PID.TID 0000.0001)     ;
(PID.TID 0000.0001) PTRACERS_diffKh = /* Laplacian Diffusivity */
(PID.TID 0000.0001)                 0.000000000000000E+00
(PID.TID 0000.0001)     ;
(PID.TID 0000.0001) PTRACERS_diffK4 = /* Biharmonic Diffusivity */
(PID.TID 0000.0001)                 0.000000000000000E+00
(PID.TID 0000.0001)     ;
(PID.TID 0000.0001) PTRACERS_diffKrNr = /* Vertical Diffusivity */
(PID.TID 0000.0001)    35 @  1.000000000000000E-05              /* K =  1: 35 */
(PID.TID 0000.0001)     ;
(PID.TID 0000.0001) PTRACERS_useGMRedi = /* apply GM-Redi */
(PID.TID 0000.0001)                   F
(PID.TID 0000.0001)     ;
(PID.TID 0000.0001) PTRACERS_useDWNSLP = /* apply DOWN-SLOPE Flow */
(PID.TID 0000.0001)                   F
(PID.TID 0000.0001)     ;
(PID.TID 0000.0001) PTRACERS_useKPP = /* apply KPP scheme */
(PID.TID 0000.0001)                   T
(PID.TID 0000.0001)     ;
(PID.TID 0000.0001) PTRACERS_ref = /* Reference vertical profile */
(PID.TID 0000.0001)    35 @  0.000000000000000E+00              /* K =  1: 35 */
(PID.TID 0000.0001)     ;
(PID.TID 0000.0001) PTRACERS_EvPrRn =/* tracer conc. in Evap. & Rain */
(PID.TID 0000.0001)                 1.234567000000000E+05
(PID.TID 0000.0001)     ;
(PID.TID 0000.0001)  -----------------------------------
(PID.TID 0000.0001)  tracer number :  152
(PID.TID 0000.0001) PTRACERS_names = /* Tracer short name */
(PID.TID 0000.0001)               'fe19'
(PID.TID 0000.0001)     ;
(PID.TID 0000.0001) PTRACERS_long_names = /* Tracer long name */
(PID.TID 0000.0001)               ''
(PID.TID 0000.0001)     ;
(PID.TID 0000.0001) PTRACERS_ioLabel = /* tracer IO Label */
(PID.TID 0000.0001)               '1a'
(PID.TID 0000.0001)     ;
(PID.TID 0000.0001) PTRACERS_advScheme = /* Advection Scheme */
(PID.TID 0000.0001)                      33
(PID.TID 0000.0001)     ;
(PID.TID 0000.0001) PTRACERS_SOM_Advection = /* tracer uses SOM advection scheme */
(PID.TID 0000.0001)                   F
(PID.TID 0000.0001)     ;
(PID.TID 0000.0001) PTRACERS_ImplVertAdv = /* implicit vert. advection flag */
(PID.TID 0000.0001)                   F
(PID.TID 0000.0001)     ;
(PID.TID 0000.0001) PTRACERS_MultiDimAdv = /* tracer uses Multi-Dim advection */
(PID.TID 0000.0001)                   T
(PID.TID 0000.0001)     ;
(PID.TID 0000.0001) PTRACERS_AdamsBashGtr = /* apply AB on tracer tendency */
(PID.TID 0000.0001)                   F
(PID.TID 0000.0001)     ;
(PID.TID 0000.0001) PTRACERS_AdamsBash_Tr = /* apply AB on passive tracer */
(PID.TID 0000.0001)                   F
(PID.TID 0000.0001)     ;
(PID.TID 0000.0001) PTRACERS_diffKh = /* Laplacian Diffusivity */
(PID.TID 0000.0001)                 0.000000000000000E+00
(PID.TID 0000.0001)     ;
(PID.TID 0000.0001) PTRACERS_diffK4 = /* Biharmonic Diffusivity */
(PID.TID 0000.0001)                 0.000000000000000E+00
(PID.TID 0000.0001)     ;
(PID.TID 0000.0001) PTRACERS_diffKrNr = /* Vertical Diffusivity */
(PID.TID 0000.0001)    35 @  1.000000000000000E-05              /* K =  1: 35 */
(PID.TID 0000.0001)     ;
(PID.TID 0000.0001) PTRACERS_useGMRedi = /* apply GM-Redi */
(PID.TID 0000.0001)                   F
(PID.TID 0000.0001)     ;
(PID.TID 0000.0001) PTRACERS_useDWNSLP = /* apply DOWN-SLOPE Flow */
(PID.TID 0000.0001)                   F
(PID.TID 0000.0001)     ;
(PID.TID 0000.0001) PTRACERS_useKPP = /* apply KPP scheme */
(PID.TID 0000.0001)                   T
(PID.TID 0000.0001)     ;
(PID.TID 0000.0001) PTRACERS_ref = /* Reference vertical profile */
(PID.TID 0000.0001)    35 @  0.000000000000000E+00              /* K =  1: 35 */
(PID.TID 0000.0001)     ;
(PID.TID 0000.0001) PTRACERS_EvPrRn =/* tracer conc. in Evap. & Rain */
(PID.TID 0000.0001)                 1.234567000000000E+05
(PID.TID 0000.0001)     ;
(PID.TID 0000.0001)  -----------------------------------
(PID.TID 0000.0001)  tracer number :  153
(PID.TID 0000.0001) PTRACERS_names = /* Tracer short name */
(PID.TID 0000.0001)               'fe20'
(PID.TID 0000.0001)     ;
(PID.TID 0000.0001) PTRACERS_long_names = /* Tracer long name */
(PID.TID 0000.0001)               ''
(PID.TID 0000.0001)     ;
(PID.TID 0000.0001) PTRACERS_ioLabel = /* tracer IO Label */
(PID.TID 0000.0001)               '1b'
(PID.TID 0000.0001)     ;
(PID.TID 0000.0001) PTRACERS_advScheme = /* Advection Scheme */
(PID.TID 0000.0001)                      33
(PID.TID 0000.0001)     ;
(PID.TID 0000.0001) PTRACERS_SOM_Advection = /* tracer uses SOM advection scheme */
(PID.TID 0000.0001)                   F
(PID.TID 0000.0001)     ;
(PID.TID 0000.0001) PTRACERS_ImplVertAdv = /* implicit vert. advection flag */
(PID.TID 0000.0001)                   F
(PID.TID 0000.0001)     ;
(PID.TID 0000.0001) PTRACERS_MultiDimAdv = /* tracer uses Multi-Dim advection */
(PID.TID 0000.0001)                   T
(PID.TID 0000.0001)     ;
(PID.TID 0000.0001) PTRACERS_AdamsBashGtr = /* apply AB on tracer tendency */
(PID.TID 0000.0001)                   F
(PID.TID 0000.0001)     ;
(PID.TID 0000.0001) PTRACERS_AdamsBash_Tr = /* apply AB on passive tracer */
(PID.TID 0000.0001)                   F
(PID.TID 0000.0001)     ;
(PID.TID 0000.0001) PTRACERS_diffKh = /* Laplacian Diffusivity */
(PID.TID 0000.0001)                 0.000000000000000E+00
(PID.TID 0000.0001)     ;
(PID.TID 0000.0001) PTRACERS_diffK4 = /* Biharmonic Diffusivity */
(PID.TID 0000.0001)                 0.000000000000000E+00
(PID.TID 0000.0001)     ;
(PID.TID 0000.0001) PTRACERS_diffKrNr = /* Vertical Diffusivity */
(PID.TID 0000.0001)    35 @  1.000000000000000E-05              /* K =  1: 35 */
(PID.TID 0000.0001)     ;
(PID.TID 0000.0001) PTRACERS_useGMRedi = /* apply GM-Redi */
(PID.TID 0000.0001)                   F
(PID.TID 0000.0001)     ;
(PID.TID 0000.0001) PTRACERS_useDWNSLP = /* apply DOWN-SLOPE Flow */
(PID.TID 0000.0001)                   F
(PID.TID 0000.0001)     ;
(PID.TID 0000.0001) PTRACERS_useKPP = /* apply KPP scheme */
(PID.TID 0000.0001)                   T
(PID.TID 0000.0001)     ;
(PID.TID 0000.0001) PTRACERS_ref = /* Reference vertical profile */
(PID.TID 0000.0001)    35 @  0.000000000000000E+00              /* K =  1: 35 */
(PID.TID 0000.0001)     ;
(PID.TID 0000.0001) PTRACERS_EvPrRn =/* tracer conc. in Evap. & Rain */
(PID.TID 0000.0001)                 1.234567000000000E+05
(PID.TID 0000.0001)     ;
(PID.TID 0000.0001)  -----------------------------------
(PID.TID 0000.0001)  tracer number :  154
(PID.TID 0000.0001) PTRACERS_names = /* Tracer short name */
(PID.TID 0000.0001)               'fe21'
(PID.TID 0000.0001)     ;
(PID.TID 0000.0001) PTRACERS_long_names = /* Tracer long name */
(PID.TID 0000.0001)               ''
(PID.TID 0000.0001)     ;
(PID.TID 0000.0001) PTRACERS_ioLabel = /* tracer IO Label */
(PID.TID 0000.0001)               '1c'
(PID.TID 0000.0001)     ;
(PID.TID 0000.0001) PTRACERS_advScheme = /* Advection Scheme */
(PID.TID 0000.0001)                      33
(PID.TID 0000.0001)     ;
(PID.TID 0000.0001) PTRACERS_SOM_Advection = /* tracer uses SOM advection scheme */
(PID.TID 0000.0001)                   F
(PID.TID 0000.0001)     ;
(PID.TID 0000.0001) PTRACERS_ImplVertAdv = /* implicit vert. advection flag */
(PID.TID 0000.0001)                   F
(PID.TID 0000.0001)     ;
(PID.TID 0000.0001) PTRACERS_MultiDimAdv = /* tracer uses Multi-Dim advection */
(PID.TID 0000.0001)                   T
(PID.TID 0000.0001)     ;
(PID.TID 0000.0001) PTRACERS_AdamsBashGtr = /* apply AB on tracer tendency */
(PID.TID 0000.0001)                   F
(PID.TID 0000.0001)     ;
(PID.TID 0000.0001) PTRACERS_AdamsBash_Tr = /* apply AB on passive tracer */
(PID.TID 0000.0001)                   F
(PID.TID 0000.0001)     ;
(PID.TID 0000.0001) PTRACERS_diffKh = /* Laplacian Diffusivity */
(PID.TID 0000.0001)                 0.000000000000000E+00
(PID.TID 0000.0001)     ;
(PID.TID 0000.0001) PTRACERS_diffK4 = /* Biharmonic Diffusivity */
(PID.TID 0000.0001)                 0.000000000000000E+00
(PID.TID 0000.0001)     ;
(PID.TID 0000.0001) PTRACERS_diffKrNr = /* Vertical Diffusivity */
(PID.TID 0000.0001)    35 @  1.000000000000000E-05              /* K =  1: 35 */
(PID.TID 0000.0001)     ;
(PID.TID 0000.0001) PTRACERS_useGMRedi = /* apply GM-Redi */
(PID.TID 0000.0001)                   F
(PID.TID 0000.0001)     ;
(PID.TID 0000.0001) PTRACERS_useDWNSLP = /* apply DOWN-SLOPE Flow */
(PID.TID 0000.0001)                   F
(PID.TID 0000.0001)     ;
(PID.TID 0000.0001) PTRACERS_useKPP = /* apply KPP scheme */
(PID.TID 0000.0001)                   T
(PID.TID 0000.0001)     ;
(PID.TID 0000.0001) PTRACERS_ref = /* Reference vertical profile */
(PID.TID 0000.0001)    35 @  0.000000000000000E+00              /* K =  1: 35 */
(PID.TID 0000.0001)     ;
(PID.TID 0000.0001) PTRACERS_EvPrRn =/* tracer conc. in Evap. & Rain */
(PID.TID 0000.0001)                 1.234567000000000E+05
(PID.TID 0000.0001)     ;
(PID.TID 0000.0001)  -----------------------------------
(PID.TID 0000.0001)  tracer number :  155
(PID.TID 0000.0001) PTRACERS_names = /* Tracer short name */
(PID.TID 0000.0001)               'fe22'
(PID.TID 0000.0001)     ;
(PID.TID 0000.0001) PTRACERS_long_names = /* Tracer long name */
(PID.TID 0000.0001)               ''
(PID.TID 0000.0001)     ;
(PID.TID 0000.0001) PTRACERS_ioLabel = /* tracer IO Label */
(PID.TID 0000.0001)               '1d'
(PID.TID 0000.0001)     ;
(PID.TID 0000.0001) PTRACERS_advScheme = /* Advection Scheme */
(PID.TID 0000.0001)                      33
(PID.TID 0000.0001)     ;
(PID.TID 0000.0001) PTRACERS_SOM_Advection = /* tracer uses SOM advection scheme */
(PID.TID 0000.0001)                   F
(PID.TID 0000.0001)     ;
(PID.TID 0000.0001) PTRACERS_ImplVertAdv = /* implicit vert. advection flag */
(PID.TID 0000.0001)                   F
(PID.TID 0000.0001)     ;
(PID.TID 0000.0001) PTRACERS_MultiDimAdv = /* tracer uses Multi-Dim advection */
(PID.TID 0000.0001)                   T
(PID.TID 0000.0001)     ;
(PID.TID 0000.0001) PTRACERS_AdamsBashGtr = /* apply AB on tracer tendency */
(PID.TID 0000.0001)                   F
(PID.TID 0000.0001)     ;
(PID.TID 0000.0001) PTRACERS_AdamsBash_Tr = /* apply AB on passive tracer */
(PID.TID 0000.0001)                   F
(PID.TID 0000.0001)     ;
(PID.TID 0000.0001) PTRACERS_diffKh = /* Laplacian Diffusivity */
(PID.TID 0000.0001)                 0.000000000000000E+00
(PID.TID 0000.0001)     ;
(PID.TID 0000.0001) PTRACERS_diffK4 = /* Biharmonic Diffusivity */
(PID.TID 0000.0001)                 0.000000000000000E+00
(PID.TID 0000.0001)     ;
(PID.TID 0000.0001) PTRACERS_diffKrNr = /* Vertical Diffusivity */
(PID.TID 0000.0001)    35 @  1.000000000000000E-05              /* K =  1: 35 */
(PID.TID 0000.0001)     ;
(PID.TID 0000.0001) PTRACERS_useGMRedi = /* apply GM-Redi */
(PID.TID 0000.0001)                   F
(PID.TID 0000.0001)     ;
(PID.TID 0000.0001) PTRACERS_useDWNSLP = /* apply DOWN-SLOPE Flow */
(PID.TID 0000.0001)                   F
(PID.TID 0000.0001)     ;
(PID.TID 0000.0001) PTRACERS_useKPP = /* apply KPP scheme */
(PID.TID 0000.0001)                   T
(PID.TID 0000.0001)     ;
(PID.TID 0000.0001) PTRACERS_ref = /* Reference vertical profile */
(PID.TID 0000.0001)    35 @  0.000000000000000E+00              /* K =  1: 35 */
(PID.TID 0000.0001)     ;
(PID.TID 0000.0001) PTRACERS_EvPrRn =/* tracer conc. in Evap. & Rain */
(PID.TID 0000.0001)                 1.234567000000000E+05
(PID.TID 0000.0001)     ;
(PID.TID 0000.0001)  -----------------------------------
(PID.TID 0000.0001)  tracer number :  156
(PID.TID 0000.0001) PTRACERS_names = /* Tracer short name */
(PID.TID 0000.0001)               'fe23'
(PID.TID 0000.0001)     ;
(PID.TID 0000.0001) PTRACERS_long_names = /* Tracer long name */
(PID.TID 0000.0001)               ''
(PID.TID 0000.0001)     ;
(PID.TID 0000.0001) PTRACERS_ioLabel = /* tracer IO Label */
(PID.TID 0000.0001)               '1e'
(PID.TID 0000.0001)     ;
(PID.TID 0000.0001) PTRACERS_advScheme = /* Advection Scheme */
(PID.TID 0000.0001)                      33
(PID.TID 0000.0001)     ;
(PID.TID 0000.0001) PTRACERS_SOM_Advection = /* tracer uses SOM advection scheme */
(PID.TID 0000.0001)                   F
(PID.TID 0000.0001)     ;
(PID.TID 0000.0001) PTRACERS_ImplVertAdv = /* implicit vert. advection flag */
(PID.TID 0000.0001)                   F
(PID.TID 0000.0001)     ;
(PID.TID 0000.0001) PTRACERS_MultiDimAdv = /* tracer uses Multi-Dim advection */
(PID.TID 0000.0001)                   T
(PID.TID 0000.0001)     ;
(PID.TID 0000.0001) PTRACERS_AdamsBashGtr = /* apply AB on tracer tendency */
(PID.TID 0000.0001)                   F
(PID.TID 0000.0001)     ;
(PID.TID 0000.0001) PTRACERS_AdamsBash_Tr = /* apply AB on passive tracer */
(PID.TID 0000.0001)                   F
(PID.TID 0000.0001)     ;
(PID.TID 0000.0001) PTRACERS_diffKh = /* Laplacian Diffusivity */
(PID.TID 0000.0001)                 0.000000000000000E+00
(PID.TID 0000.0001)     ;
(PID.TID 0000.0001) PTRACERS_diffK4 = /* Biharmonic Diffusivity */
(PID.TID 0000.0001)                 0.000000000000000E+00
(PID.TID 0000.0001)     ;
(PID.TID 0000.0001) PTRACERS_diffKrNr = /* Vertical Diffusivity */
(PID.TID 0000.0001)    35 @  1.000000000000000E-05              /* K =  1: 35 */
(PID.TID 0000.0001)     ;
(PID.TID 0000.0001) PTRACERS_useGMRedi = /* apply GM-Redi */
(PID.TID 0000.0001)                   F
(PID.TID 0000.0001)     ;
(PID.TID 0000.0001) PTRACERS_useDWNSLP = /* apply DOWN-SLOPE Flow */
(PID.TID 0000.0001)                   F
(PID.TID 0000.0001)     ;
(PID.TID 0000.0001) PTRACERS_useKPP = /* apply KPP scheme */
(PID.TID 0000.0001)                   T
(PID.TID 0000.0001)     ;
(PID.TID 0000.0001) PTRACERS_ref = /* Reference vertical profile */
(PID.TID 0000.0001)    35 @  0.000000000000000E+00              /* K =  1: 35 */
(PID.TID 0000.0001)     ;
(PID.TID 0000.0001) PTRACERS_EvPrRn =/* tracer conc. in Evap. & Rain */
(PID.TID 0000.0001)                 1.234567000000000E+05
(PID.TID 0000.0001)     ;
(PID.TID 0000.0001)  -----------------------------------
(PID.TID 0000.0001)  tracer number :  157
(PID.TID 0000.0001) PTRACERS_names = /* Tracer short name */
(PID.TID 0000.0001)               'fe24'
(PID.TID 0000.0001)     ;
(PID.TID 0000.0001) PTRACERS_long_names = /* Tracer long name */
(PID.TID 0000.0001)               ''
(PID.TID 0000.0001)     ;
(PID.TID 0000.0001) PTRACERS_ioLabel = /* tracer IO Label */
(PID.TID 0000.0001)               '1f'
(PID.TID 0000.0001)     ;
(PID.TID 0000.0001) PTRACERS_advScheme = /* Advection Scheme */
(PID.TID 0000.0001)                      33
(PID.TID 0000.0001)     ;
(PID.TID 0000.0001) PTRACERS_SOM_Advection = /* tracer uses SOM advection scheme */
(PID.TID 0000.0001)                   F
(PID.TID 0000.0001)     ;
(PID.TID 0000.0001) PTRACERS_ImplVertAdv = /* implicit vert. advection flag */
(PID.TID 0000.0001)                   F
(PID.TID 0000.0001)     ;
(PID.TID 0000.0001) PTRACERS_MultiDimAdv = /* tracer uses Multi-Dim advection */
(PID.TID 0000.0001)                   T
(PID.TID 0000.0001)     ;
(PID.TID 0000.0001) PTRACERS_AdamsBashGtr = /* apply AB on tracer tendency */
(PID.TID 0000.0001)                   F
(PID.TID 0000.0001)     ;
(PID.TID 0000.0001) PTRACERS_AdamsBash_Tr = /* apply AB on passive tracer */
(PID.TID 0000.0001)                   F
(PID.TID 0000.0001)     ;
(PID.TID 0000.0001) PTRACERS_diffKh = /* Laplacian Diffusivity */
(PID.TID 0000.0001)                 0.000000000000000E+00
(PID.TID 0000.0001)     ;
(PID.TID 0000.0001) PTRACERS_diffK4 = /* Biharmonic Diffusivity */
(PID.TID 0000.0001)                 0.000000000000000E+00
(PID.TID 0000.0001)     ;
(PID.TID 0000.0001) PTRACERS_diffKrNr = /* Vertical Diffusivity */
(PID.TID 0000.0001)    35 @  1.000000000000000E-05              /* K =  1: 35 */
(PID.TID 0000.0001)     ;
(PID.TID 0000.0001) PTRACERS_useGMRedi = /* apply GM-Redi */
(PID.TID 0000.0001)                   F
(PID.TID 0000.0001)     ;
(PID.TID 0000.0001) PTRACERS_useDWNSLP = /* apply DOWN-SLOPE Flow */
(PID.TID 0000.0001)                   F
(PID.TID 0000.0001)     ;
(PID.TID 0000.0001) PTRACERS_useKPP = /* apply KPP scheme */
(PID.TID 0000.0001)                   T
(PID.TID 0000.0001)     ;
(PID.TID 0000.0001) PTRACERS_ref = /* Reference vertical profile */
(PID.TID 0000.0001)    35 @  0.000000000000000E+00              /* K =  1: 35 */
(PID.TID 0000.0001)     ;
(PID.TID 0000.0001) PTRACERS_EvPrRn =/* tracer conc. in Evap. & Rain */
(PID.TID 0000.0001)                 1.234567000000000E+05
(PID.TID 0000.0001)     ;
(PID.TID 0000.0001)  -----------------------------------
(PID.TID 0000.0001)  tracer number :  158
(PID.TID 0000.0001) PTRACERS_names = /* Tracer short name */
(PID.TID 0000.0001)               'fe25'
(PID.TID 0000.0001)     ;
(PID.TID 0000.0001) PTRACERS_long_names = /* Tracer long name */
(PID.TID 0000.0001)               ''
(PID.TID 0000.0001)     ;
(PID.TID 0000.0001) PTRACERS_ioLabel = /* tracer IO Label */
(PID.TID 0000.0001)               '1g'
(PID.TID 0000.0001)     ;
(PID.TID 0000.0001) PTRACERS_advScheme = /* Advection Scheme */
(PID.TID 0000.0001)                      33
(PID.TID 0000.0001)     ;
(PID.TID 0000.0001) PTRACERS_SOM_Advection = /* tracer uses SOM advection scheme */
(PID.TID 0000.0001)                   F
(PID.TID 0000.0001)     ;
(PID.TID 0000.0001) PTRACERS_ImplVertAdv = /* implicit vert. advection flag */
(PID.TID 0000.0001)                   F
(PID.TID 0000.0001)     ;
(PID.TID 0000.0001) PTRACERS_MultiDimAdv = /* tracer uses Multi-Dim advection */
(PID.TID 0000.0001)                   T
(PID.TID 0000.0001)     ;
(PID.TID 0000.0001) PTRACERS_AdamsBashGtr = /* apply AB on tracer tendency */
(PID.TID 0000.0001)                   F
(PID.TID 0000.0001)     ;
(PID.TID 0000.0001) PTRACERS_AdamsBash_Tr = /* apply AB on passive tracer */
(PID.TID 0000.0001)                   F
(PID.TID 0000.0001)     ;
(PID.TID 0000.0001) PTRACERS_diffKh = /* Laplacian Diffusivity */
(PID.TID 0000.0001)                 0.000000000000000E+00
(PID.TID 0000.0001)     ;
(PID.TID 0000.0001) PTRACERS_diffK4 = /* Biharmonic Diffusivity */
(PID.TID 0000.0001)                 0.000000000000000E+00
(PID.TID 0000.0001)     ;
(PID.TID 0000.0001) PTRACERS_diffKrNr = /* Vertical Diffusivity */
(PID.TID 0000.0001)    35 @  1.000000000000000E-05              /* K =  1: 35 */
(PID.TID 0000.0001)     ;
(PID.TID 0000.0001) PTRACERS_useGMRedi = /* apply GM-Redi */
(PID.TID 0000.0001)                   F
(PID.TID 0000.0001)     ;
(PID.TID 0000.0001) PTRACERS_useDWNSLP = /* apply DOWN-SLOPE Flow */
(PID.TID 0000.0001)                   F
(PID.TID 0000.0001)     ;
(PID.TID 0000.0001) PTRACERS_useKPP = /* apply KPP scheme */
(PID.TID 0000.0001)                   T
(PID.TID 0000.0001)     ;
(PID.TID 0000.0001) PTRACERS_ref = /* Reference vertical profile */
(PID.TID 0000.0001)    35 @  0.000000000000000E+00              /* K =  1: 35 */
(PID.TID 0000.0001)     ;
(PID.TID 0000.0001) PTRACERS_EvPrRn =/* tracer conc. in Evap. & Rain */
(PID.TID 0000.0001)                 1.234567000000000E+05
(PID.TID 0000.0001)     ;
(PID.TID 0000.0001)  -----------------------------------
(PID.TID 0000.0001)  tracer number :  159
(PID.TID 0000.0001) PTRACERS_names = /* Tracer short name */
(PID.TID 0000.0001)               'fe26'
(PID.TID 0000.0001)     ;
(PID.TID 0000.0001) PTRACERS_long_names = /* Tracer long name */
(PID.TID 0000.0001)               ''
(PID.TID 0000.0001)     ;
(PID.TID 0000.0001) PTRACERS_ioLabel = /* tracer IO Label */
(PID.TID 0000.0001)               '1h'
(PID.TID 0000.0001)     ;
(PID.TID 0000.0001) PTRACERS_advScheme = /* Advection Scheme */
(PID.TID 0000.0001)                      33
(PID.TID 0000.0001)     ;
(PID.TID 0000.0001) PTRACERS_SOM_Advection = /* tracer uses SOM advection scheme */
(PID.TID 0000.0001)                   F
(PID.TID 0000.0001)     ;
(PID.TID 0000.0001) PTRACERS_ImplVertAdv = /* implicit vert. advection flag */
(PID.TID 0000.0001)                   F
(PID.TID 0000.0001)     ;
(PID.TID 0000.0001) PTRACERS_MultiDimAdv = /* tracer uses Multi-Dim advection */
(PID.TID 0000.0001)                   T
(PID.TID 0000.0001)     ;
(PID.TID 0000.0001) PTRACERS_AdamsBashGtr = /* apply AB on tracer tendency */
(PID.TID 0000.0001)                   F
(PID.TID 0000.0001)     ;
(PID.TID 0000.0001) PTRACERS_AdamsBash_Tr = /* apply AB on passive tracer */
(PID.TID 0000.0001)                   F
(PID.TID 0000.0001)     ;
(PID.TID 0000.0001) PTRACERS_diffKh = /* Laplacian Diffusivity */
(PID.TID 0000.0001)                 0.000000000000000E+00
(PID.TID 0000.0001)     ;
(PID.TID 0000.0001) PTRACERS_diffK4 = /* Biharmonic Diffusivity */
(PID.TID 0000.0001)                 0.000000000000000E+00
(PID.TID 0000.0001)     ;
(PID.TID 0000.0001) PTRACERS_diffKrNr = /* Vertical Diffusivity */
(PID.TID 0000.0001)    35 @  1.000000000000000E-05              /* K =  1: 35 */
(PID.TID 0000.0001)     ;
(PID.TID 0000.0001) PTRACERS_useGMRedi = /* apply GM-Redi */
(PID.TID 0000.0001)                   F
(PID.TID 0000.0001)     ;
(PID.TID 0000.0001) PTRACERS_useDWNSLP = /* apply DOWN-SLOPE Flow */
(PID.TID 0000.0001)                   F
(PID.TID 0000.0001)     ;
(PID.TID 0000.0001) PTRACERS_useKPP = /* apply KPP scheme */
(PID.TID 0000.0001)                   T
(PID.TID 0000.0001)     ;
(PID.TID 0000.0001) PTRACERS_ref = /* Reference vertical profile */
(PID.TID 0000.0001)    35 @  0.000000000000000E+00              /* K =  1: 35 */
(PID.TID 0000.0001)     ;
(PID.TID 0000.0001) PTRACERS_EvPrRn =/* tracer conc. in Evap. & Rain */
(PID.TID 0000.0001)                 1.234567000000000E+05
(PID.TID 0000.0001)     ;
(PID.TID 0000.0001)  -----------------------------------
(PID.TID 0000.0001)  tracer number :  160
(PID.TID 0000.0001) PTRACERS_names = /* Tracer short name */
(PID.TID 0000.0001)               'fe27'
(PID.TID 0000.0001)     ;
(PID.TID 0000.0001) PTRACERS_long_names = /* Tracer long name */
(PID.TID 0000.0001)               ''
(PID.TID 0000.0001)     ;
(PID.TID 0000.0001) PTRACERS_ioLabel = /* tracer IO Label */
(PID.TID 0000.0001)               '1i'
(PID.TID 0000.0001)     ;
(PID.TID 0000.0001) PTRACERS_advScheme = /* Advection Scheme */
(PID.TID 0000.0001)                      33
(PID.TID 0000.0001)     ;
(PID.TID 0000.0001) PTRACERS_SOM_Advection = /* tracer uses SOM advection scheme */
(PID.TID 0000.0001)                   F
(PID.TID 0000.0001)     ;
(PID.TID 0000.0001) PTRACERS_ImplVertAdv = /* implicit vert. advection flag */
(PID.TID 0000.0001)                   F
(PID.TID 0000.0001)     ;
(PID.TID 0000.0001) PTRACERS_MultiDimAdv = /* tracer uses Multi-Dim advection */
(PID.TID 0000.0001)                   T
(PID.TID 0000.0001)     ;
(PID.TID 0000.0001) PTRACERS_AdamsBashGtr = /* apply AB on tracer tendency */
(PID.TID 0000.0001)                   F
(PID.TID 0000.0001)     ;
(PID.TID 0000.0001) PTRACERS_AdamsBash_Tr = /* apply AB on passive tracer */
(PID.TID 0000.0001)                   F
(PID.TID 0000.0001)     ;
(PID.TID 0000.0001) PTRACERS_diffKh = /* Laplacian Diffusivity */
(PID.TID 0000.0001)                 0.000000000000000E+00
(PID.TID 0000.0001)     ;
(PID.TID 0000.0001) PTRACERS_diffK4 = /* Biharmonic Diffusivity */
(PID.TID 0000.0001)                 0.000000000000000E+00
(PID.TID 0000.0001)     ;
(PID.TID 0000.0001) PTRACERS_diffKrNr = /* Vertical Diffusivity */
(PID.TID 0000.0001)    35 @  1.000000000000000E-05              /* K =  1: 35 */
(PID.TID 0000.0001)     ;
(PID.TID 0000.0001) PTRACERS_useGMRedi = /* apply GM-Redi */
(PID.TID 0000.0001)                   F
(PID.TID 0000.0001)     ;
(PID.TID 0000.0001) PTRACERS_useDWNSLP = /* apply DOWN-SLOPE Flow */
(PID.TID 0000.0001)                   F
(PID.TID 0000.0001)     ;
(PID.TID 0000.0001) PTRACERS_useKPP = /* apply KPP scheme */
(PID.TID 0000.0001)                   T
(PID.TID 0000.0001)     ;
(PID.TID 0000.0001) PTRACERS_ref = /* Reference vertical profile */
(PID.TID 0000.0001)    35 @  0.000000000000000E+00              /* K =  1: 35 */
(PID.TID 0000.0001)     ;
(PID.TID 0000.0001) PTRACERS_EvPrRn =/* tracer conc. in Evap. & Rain */
(PID.TID 0000.0001)                 1.234567000000000E+05
(PID.TID 0000.0001)     ;
(PID.TID 0000.0001)  -----------------------------------
(PID.TID 0000.0001)  tracer number :  161
(PID.TID 0000.0001) PTRACERS_names = /* Tracer short name */
(PID.TID 0000.0001)               'fe28'
(PID.TID 0000.0001)     ;
(PID.TID 0000.0001) PTRACERS_long_names = /* Tracer long name */
(PID.TID 0000.0001)               ''
(PID.TID 0000.0001)     ;
(PID.TID 0000.0001) PTRACERS_ioLabel = /* tracer IO Label */
(PID.TID 0000.0001)               '1j'
(PID.TID 0000.0001)     ;
(PID.TID 0000.0001) PTRACERS_advScheme = /* Advection Scheme */
(PID.TID 0000.0001)                      33
(PID.TID 0000.0001)     ;
(PID.TID 0000.0001) PTRACERS_SOM_Advection = /* tracer uses SOM advection scheme */
(PID.TID 0000.0001)                   F
(PID.TID 0000.0001)     ;
(PID.TID 0000.0001) PTRACERS_ImplVertAdv = /* implicit vert. advection flag */
(PID.TID 0000.0001)                   F
(PID.TID 0000.0001)     ;
(PID.TID 0000.0001) PTRACERS_MultiDimAdv = /* tracer uses Multi-Dim advection */
(PID.TID 0000.0001)                   T
(PID.TID 0000.0001)     ;
(PID.TID 0000.0001) PTRACERS_AdamsBashGtr = /* apply AB on tracer tendency */
(PID.TID 0000.0001)                   F
(PID.TID 0000.0001)     ;
(PID.TID 0000.0001) PTRACERS_AdamsBash_Tr = /* apply AB on passive tracer */
(PID.TID 0000.0001)                   F
(PID.TID 0000.0001)     ;
(PID.TID 0000.0001) PTRACERS_diffKh = /* Laplacian Diffusivity */
(PID.TID 0000.0001)                 0.000000000000000E+00
(PID.TID 0000.0001)     ;
(PID.TID 0000.0001) PTRACERS_diffK4 = /* Biharmonic Diffusivity */
(PID.TID 0000.0001)                 0.000000000000000E+00
(PID.TID 0000.0001)     ;
(PID.TID 0000.0001) PTRACERS_diffKrNr = /* Vertical Diffusivity */
(PID.TID 0000.0001)    35 @  1.000000000000000E-05              /* K =  1: 35 */
(PID.TID 0000.0001)     ;
(PID.TID 0000.0001) PTRACERS_useGMRedi = /* apply GM-Redi */
(PID.TID 0000.0001)                   F
(PID.TID 0000.0001)     ;
(PID.TID 0000.0001) PTRACERS_useDWNSLP = /* apply DOWN-SLOPE Flow */
(PID.TID 0000.0001)                   F
(PID.TID 0000.0001)     ;
(PID.TID 0000.0001) PTRACERS_useKPP = /* apply KPP scheme */
(PID.TID 0000.0001)                   T
(PID.TID 0000.0001)     ;
(PID.TID 0000.0001) PTRACERS_ref = /* Reference vertical profile */
(PID.TID 0000.0001)    35 @  0.000000000000000E+00              /* K =  1: 35 */
(PID.TID 0000.0001)     ;
(PID.TID 0000.0001) PTRACERS_EvPrRn =/* tracer conc. in Evap. & Rain */
(PID.TID 0000.0001)                 1.234567000000000E+05
(PID.TID 0000.0001)     ;
(PID.TID 0000.0001)  -----------------------------------
(PID.TID 0000.0001)  tracer number :  162
(PID.TID 0000.0001) PTRACERS_names = /* Tracer short name */
(PID.TID 0000.0001)               'fe29'
(PID.TID 0000.0001)     ;
(PID.TID 0000.0001) PTRACERS_long_names = /* Tracer long name */
(PID.TID 0000.0001)               ''
(PID.TID 0000.0001)     ;
(PID.TID 0000.0001) PTRACERS_ioLabel = /* tracer IO Label */
(PID.TID 0000.0001)               '1k'
(PID.TID 0000.0001)     ;
(PID.TID 0000.0001) PTRACERS_advScheme = /* Advection Scheme */
(PID.TID 0000.0001)                      33
(PID.TID 0000.0001)     ;
(PID.TID 0000.0001) PTRACERS_SOM_Advection = /* tracer uses SOM advection scheme */
(PID.TID 0000.0001)                   F
(PID.TID 0000.0001)     ;
(PID.TID 0000.0001) PTRACERS_ImplVertAdv = /* implicit vert. advection flag */
(PID.TID 0000.0001)                   F
(PID.TID 0000.0001)     ;
(PID.TID 0000.0001) PTRACERS_MultiDimAdv = /* tracer uses Multi-Dim advection */
(PID.TID 0000.0001)                   T
(PID.TID 0000.0001)     ;
(PID.TID 0000.0001) PTRACERS_AdamsBashGtr = /* apply AB on tracer tendency */
(PID.TID 0000.0001)                   F
(PID.TID 0000.0001)     ;
(PID.TID 0000.0001) PTRACERS_AdamsBash_Tr = /* apply AB on passive tracer */
(PID.TID 0000.0001)                   F
(PID.TID 0000.0001)     ;
(PID.TID 0000.0001) PTRACERS_diffKh = /* Laplacian Diffusivity */
(PID.TID 0000.0001)                 0.000000000000000E+00
(PID.TID 0000.0001)     ;
(PID.TID 0000.0001) PTRACERS_diffK4 = /* Biharmonic Diffusivity */
(PID.TID 0000.0001)                 0.000000000000000E+00
(PID.TID 0000.0001)     ;
(PID.TID 0000.0001) PTRACERS_diffKrNr = /* Vertical Diffusivity */
(PID.TID 0000.0001)    35 @  1.000000000000000E-05              /* K =  1: 35 */
(PID.TID 0000.0001)     ;
(PID.TID 0000.0001) PTRACERS_useGMRedi = /* apply GM-Redi */
(PID.TID 0000.0001)                   F
(PID.TID 0000.0001)     ;
(PID.TID 0000.0001) PTRACERS_useDWNSLP = /* apply DOWN-SLOPE Flow */
(PID.TID 0000.0001)                   F
(PID.TID 0000.0001)     ;
(PID.TID 0000.0001) PTRACERS_useKPP = /* apply KPP scheme */
(PID.TID 0000.0001)                   T
(PID.TID 0000.0001)     ;
(PID.TID 0000.0001) PTRACERS_ref = /* Reference vertical profile */
(PID.TID 0000.0001)    35 @  0.000000000000000E+00              /* K =  1: 35 */
(PID.TID 0000.0001)     ;
(PID.TID 0000.0001) PTRACERS_EvPrRn =/* tracer conc. in Evap. & Rain */
(PID.TID 0000.0001)                 1.234567000000000E+05
(PID.TID 0000.0001)     ;
(PID.TID 0000.0001)  -----------------------------------
(PID.TID 0000.0001)  tracer number :  163
(PID.TID 0000.0001) PTRACERS_names = /* Tracer short name */
(PID.TID 0000.0001)               'fe30'
(PID.TID 0000.0001)     ;
(PID.TID 0000.0001) PTRACERS_long_names = /* Tracer long name */
(PID.TID 0000.0001)               ''
(PID.TID 0000.0001)     ;
(PID.TID 0000.0001) PTRACERS_ioLabel = /* tracer IO Label */
(PID.TID 0000.0001)               '1l'
(PID.TID 0000.0001)     ;
(PID.TID 0000.0001) PTRACERS_advScheme = /* Advection Scheme */
(PID.TID 0000.0001)                      33
(PID.TID 0000.0001)     ;
(PID.TID 0000.0001) PTRACERS_SOM_Advection = /* tracer uses SOM advection scheme */
(PID.TID 0000.0001)                   F
(PID.TID 0000.0001)     ;
(PID.TID 0000.0001) PTRACERS_ImplVertAdv = /* implicit vert. advection flag */
(PID.TID 0000.0001)                   F
(PID.TID 0000.0001)     ;
(PID.TID 0000.0001) PTRACERS_MultiDimAdv = /* tracer uses Multi-Dim advection */
(PID.TID 0000.0001)                   T
(PID.TID 0000.0001)     ;
(PID.TID 0000.0001) PTRACERS_AdamsBashGtr = /* apply AB on tracer tendency */
(PID.TID 0000.0001)                   F
(PID.TID 0000.0001)     ;
(PID.TID 0000.0001) PTRACERS_AdamsBash_Tr = /* apply AB on passive tracer */
(PID.TID 0000.0001)                   F
(PID.TID 0000.0001)     ;
(PID.TID 0000.0001) PTRACERS_diffKh = /* Laplacian Diffusivity */
(PID.TID 0000.0001)                 0.000000000000000E+00
(PID.TID 0000.0001)     ;
(PID.TID 0000.0001) PTRACERS_diffK4 = /* Biharmonic Diffusivity */
(PID.TID 0000.0001)                 0.000000000000000E+00
(PID.TID 0000.0001)     ;
(PID.TID 0000.0001) PTRACERS_diffKrNr = /* Vertical Diffusivity */
(PID.TID 0000.0001)    35 @  1.000000000000000E-05              /* K =  1: 35 */
(PID.TID 0000.0001)     ;
(PID.TID 0000.0001) PTRACERS_useGMRedi = /* apply GM-Redi */
(PID.TID 0000.0001)                   F
(PID.TID 0000.0001)     ;
(PID.TID 0000.0001) PTRACERS_useDWNSLP = /* apply DOWN-SLOPE Flow */
(PID.TID 0000.0001)                   F
(PID.TID 0000.0001)     ;
(PID.TID 0000.0001) PTRACERS_useKPP = /* apply KPP scheme */
(PID.TID 0000.0001)                   T
(PID.TID 0000.0001)     ;
(PID.TID 0000.0001) PTRACERS_ref = /* Reference vertical profile */
(PID.TID 0000.0001)    35 @  0.000000000000000E+00              /* K =  1: 35 */
(PID.TID 0000.0001)     ;
(PID.TID 0000.0001) PTRACERS_EvPrRn =/* tracer conc. in Evap. & Rain */
(PID.TID 0000.0001)                 1.234567000000000E+05
(PID.TID 0000.0001)     ;
(PID.TID 0000.0001)  -----------------------------------
(PID.TID 0000.0001)  tracer number :  164
(PID.TID 0000.0001) PTRACERS_names = /* Tracer short name */
(PID.TID 0000.0001)               'fe31'
(PID.TID 0000.0001)     ;
(PID.TID 0000.0001) PTRACERS_long_names = /* Tracer long name */
(PID.TID 0000.0001)               ''
(PID.TID 0000.0001)     ;
(PID.TID 0000.0001) PTRACERS_ioLabel = /* tracer IO Label */
(PID.TID 0000.0001)               '1m'
(PID.TID 0000.0001)     ;
(PID.TID 0000.0001) PTRACERS_advScheme = /* Advection Scheme */
(PID.TID 0000.0001)                      33
(PID.TID 0000.0001)     ;
(PID.TID 0000.0001) PTRACERS_SOM_Advection = /* tracer uses SOM advection scheme */
(PID.TID 0000.0001)                   F
(PID.TID 0000.0001)     ;
(PID.TID 0000.0001) PTRACERS_ImplVertAdv = /* implicit vert. advection flag */
(PID.TID 0000.0001)                   F
(PID.TID 0000.0001)     ;
(PID.TID 0000.0001) PTRACERS_MultiDimAdv = /* tracer uses Multi-Dim advection */
(PID.TID 0000.0001)                   T
(PID.TID 0000.0001)     ;
(PID.TID 0000.0001) PTRACERS_AdamsBashGtr = /* apply AB on tracer tendency */
(PID.TID 0000.0001)                   F
(PID.TID 0000.0001)     ;
(PID.TID 0000.0001) PTRACERS_AdamsBash_Tr = /* apply AB on passive tracer */
(PID.TID 0000.0001)                   F
(PID.TID 0000.0001)     ;
(PID.TID 0000.0001) PTRACERS_diffKh = /* Laplacian Diffusivity */
(PID.TID 0000.0001)                 0.000000000000000E+00
(PID.TID 0000.0001)     ;
(PID.TID 0000.0001) PTRACERS_diffK4 = /* Biharmonic Diffusivity */
(PID.TID 0000.0001)                 0.000000000000000E+00
(PID.TID 0000.0001)     ;
(PID.TID 0000.0001) PTRACERS_diffKrNr = /* Vertical Diffusivity */
(PID.TID 0000.0001)    35 @  1.000000000000000E-05              /* K =  1: 35 */
(PID.TID 0000.0001)     ;
(PID.TID 0000.0001) PTRACERS_useGMRedi = /* apply GM-Redi */
(PID.TID 0000.0001)                   F
(PID.TID 0000.0001)     ;
(PID.TID 0000.0001) PTRACERS_useDWNSLP = /* apply DOWN-SLOPE Flow */
(PID.TID 0000.0001)                   F
(PID.TID 0000.0001)     ;
(PID.TID 0000.0001) PTRACERS_useKPP = /* apply KPP scheme */
(PID.TID 0000.0001)                   T
(PID.TID 0000.0001)     ;
(PID.TID 0000.0001) PTRACERS_ref = /* Reference vertical profile */
(PID.TID 0000.0001)    35 @  0.000000000000000E+00              /* K =  1: 35 */
(PID.TID 0000.0001)     ;
(PID.TID 0000.0001) PTRACERS_EvPrRn =/* tracer conc. in Evap. & Rain */
(PID.TID 0000.0001)                 1.234567000000000E+05
(PID.TID 0000.0001)     ;
(PID.TID 0000.0001)  -----------------------------------
(PID.TID 0000.0001)  tracer number :  165
(PID.TID 0000.0001) PTRACERS_names = /* Tracer short name */
(PID.TID 0000.0001)               'fe32'
(PID.TID 0000.0001)     ;
(PID.TID 0000.0001) PTRACERS_long_names = /* Tracer long name */
(PID.TID 0000.0001)               ''
(PID.TID 0000.0001)     ;
(PID.TID 0000.0001) PTRACERS_ioLabel = /* tracer IO Label */
(PID.TID 0000.0001)               '1n'
(PID.TID 0000.0001)     ;
(PID.TID 0000.0001) PTRACERS_advScheme = /* Advection Scheme */
(PID.TID 0000.0001)                      33
(PID.TID 0000.0001)     ;
(PID.TID 0000.0001) PTRACERS_SOM_Advection = /* tracer uses SOM advection scheme */
(PID.TID 0000.0001)                   F
(PID.TID 0000.0001)     ;
(PID.TID 0000.0001) PTRACERS_ImplVertAdv = /* implicit vert. advection flag */
(PID.TID 0000.0001)                   F
(PID.TID 0000.0001)     ;
(PID.TID 0000.0001) PTRACERS_MultiDimAdv = /* tracer uses Multi-Dim advection */
(PID.TID 0000.0001)                   T
(PID.TID 0000.0001)     ;
(PID.TID 0000.0001) PTRACERS_AdamsBashGtr = /* apply AB on tracer tendency */
(PID.TID 0000.0001)                   F
(PID.TID 0000.0001)     ;
(PID.TID 0000.0001) PTRACERS_AdamsBash_Tr = /* apply AB on passive tracer */
(PID.TID 0000.0001)                   F
(PID.TID 0000.0001)     ;
(PID.TID 0000.0001) PTRACERS_diffKh = /* Laplacian Diffusivity */
(PID.TID 0000.0001)                 0.000000000000000E+00
(PID.TID 0000.0001)     ;
(PID.TID 0000.0001) PTRACERS_diffK4 = /* Biharmonic Diffusivity */
(PID.TID 0000.0001)                 0.000000000000000E+00
(PID.TID 0000.0001)     ;
(PID.TID 0000.0001) PTRACERS_diffKrNr = /* Vertical Diffusivity */
(PID.TID 0000.0001)    35 @  1.000000000000000E-05              /* K =  1: 35 */
(PID.TID 0000.0001)     ;
(PID.TID 0000.0001) PTRACERS_useGMRedi = /* apply GM-Redi */
(PID.TID 0000.0001)                   F
(PID.TID 0000.0001)     ;
(PID.TID 0000.0001) PTRACERS_useDWNSLP = /* apply DOWN-SLOPE Flow */
(PID.TID 0000.0001)                   F
(PID.TID 0000.0001)     ;
(PID.TID 0000.0001) PTRACERS_useKPP = /* apply KPP scheme */
(PID.TID 0000.0001)                   T
(PID.TID 0000.0001)     ;
(PID.TID 0000.0001) PTRACERS_ref = /* Reference vertical profile */
(PID.TID 0000.0001)    35 @  0.000000000000000E+00              /* K =  1: 35 */
(PID.TID 0000.0001)     ;
(PID.TID 0000.0001) PTRACERS_EvPrRn =/* tracer conc. in Evap. & Rain */
(PID.TID 0000.0001)                 1.234567000000000E+05
(PID.TID 0000.0001)     ;
(PID.TID 0000.0001)  -----------------------------------
(PID.TID 0000.0001)  tracer number :  166
(PID.TID 0000.0001) PTRACERS_names = /* Tracer short name */
(PID.TID 0000.0001)               'fe33'
(PID.TID 0000.0001)     ;
(PID.TID 0000.0001) PTRACERS_long_names = /* Tracer long name */
(PID.TID 0000.0001)               ''
(PID.TID 0000.0001)     ;
(PID.TID 0000.0001) PTRACERS_ioLabel = /* tracer IO Label */
(PID.TID 0000.0001)               '1o'
(PID.TID 0000.0001)     ;
(PID.TID 0000.0001) PTRACERS_advScheme = /* Advection Scheme */
(PID.TID 0000.0001)                      33
(PID.TID 0000.0001)     ;
(PID.TID 0000.0001) PTRACERS_SOM_Advection = /* tracer uses SOM advection scheme */
(PID.TID 0000.0001)                   F
(PID.TID 0000.0001)     ;
(PID.TID 0000.0001) PTRACERS_ImplVertAdv = /* implicit vert. advection flag */
(PID.TID 0000.0001)                   F
(PID.TID 0000.0001)     ;
(PID.TID 0000.0001) PTRACERS_MultiDimAdv = /* tracer uses Multi-Dim advection */
(PID.TID 0000.0001)                   T
(PID.TID 0000.0001)     ;
(PID.TID 0000.0001) PTRACERS_AdamsBashGtr = /* apply AB on tracer tendency */
(PID.TID 0000.0001)                   F
(PID.TID 0000.0001)     ;
(PID.TID 0000.0001) PTRACERS_AdamsBash_Tr = /* apply AB on passive tracer */
(PID.TID 0000.0001)                   F
(PID.TID 0000.0001)     ;
(PID.TID 0000.0001) PTRACERS_diffKh = /* Laplacian Diffusivity */
(PID.TID 0000.0001)                 0.000000000000000E+00
(PID.TID 0000.0001)     ;
(PID.TID 0000.0001) PTRACERS_diffK4 = /* Biharmonic Diffusivity */
(PID.TID 0000.0001)                 0.000000000000000E+00
(PID.TID 0000.0001)     ;
(PID.TID 0000.0001) PTRACERS_diffKrNr = /* Vertical Diffusivity */
(PID.TID 0000.0001)    35 @  1.000000000000000E-05              /* K =  1: 35 */
(PID.TID 0000.0001)     ;
(PID.TID 0000.0001) PTRACERS_useGMRedi = /* apply GM-Redi */
(PID.TID 0000.0001)                   F
(PID.TID 0000.0001)     ;
(PID.TID 0000.0001) PTRACERS_useDWNSLP = /* apply DOWN-SLOPE Flow */
(PID.TID 0000.0001)                   F
(PID.TID 0000.0001)     ;
(PID.TID 0000.0001) PTRACERS_useKPP = /* apply KPP scheme */
(PID.TID 0000.0001)                   T
(PID.TID 0000.0001)     ;
(PID.TID 0000.0001) PTRACERS_ref = /* Reference vertical profile */
(PID.TID 0000.0001)    35 @  0.000000000000000E+00              /* K =  1: 35 */
(PID.TID 0000.0001)     ;
(PID.TID 0000.0001) PTRACERS_EvPrRn =/* tracer conc. in Evap. & Rain */
(PID.TID 0000.0001)                 1.234567000000000E+05
(PID.TID 0000.0001)     ;
(PID.TID 0000.0001)  -----------------------------------
(PID.TID 0000.0001)  tracer number :  167
(PID.TID 0000.0001) PTRACERS_names = /* Tracer short name */
(PID.TID 0000.0001)               'fe34'
(PID.TID 0000.0001)     ;
(PID.TID 0000.0001) PTRACERS_long_names = /* Tracer long name */
(PID.TID 0000.0001)               ''
(PID.TID 0000.0001)     ;
(PID.TID 0000.0001) PTRACERS_ioLabel = /* tracer IO Label */
(PID.TID 0000.0001)               '1p'
(PID.TID 0000.0001)     ;
(PID.TID 0000.0001) PTRACERS_advScheme = /* Advection Scheme */
(PID.TID 0000.0001)                      33
(PID.TID 0000.0001)     ;
(PID.TID 0000.0001) PTRACERS_SOM_Advection = /* tracer uses SOM advection scheme */
(PID.TID 0000.0001)                   F
(PID.TID 0000.0001)     ;
(PID.TID 0000.0001) PTRACERS_ImplVertAdv = /* implicit vert. advection flag */
(PID.TID 0000.0001)                   F
(PID.TID 0000.0001)     ;
(PID.TID 0000.0001) PTRACERS_MultiDimAdv = /* tracer uses Multi-Dim advection */
(PID.TID 0000.0001)                   T
(PID.TID 0000.0001)     ;
(PID.TID 0000.0001) PTRACERS_AdamsBashGtr = /* apply AB on tracer tendency */
(PID.TID 0000.0001)                   F
(PID.TID 0000.0001)     ;
(PID.TID 0000.0001) PTRACERS_AdamsBash_Tr = /* apply AB on passive tracer */
(PID.TID 0000.0001)                   F
(PID.TID 0000.0001)     ;
(PID.TID 0000.0001) PTRACERS_diffKh = /* Laplacian Diffusivity */
(PID.TID 0000.0001)                 0.000000000000000E+00
(PID.TID 0000.0001)     ;
(PID.TID 0000.0001) PTRACERS_diffK4 = /* Biharmonic Diffusivity */
(PID.TID 0000.0001)                 0.000000000000000E+00
(PID.TID 0000.0001)     ;
(PID.TID 0000.0001) PTRACERS_diffKrNr = /* Vertical Diffusivity */
(PID.TID 0000.0001)    35 @  1.000000000000000E-05              /* K =  1: 35 */
(PID.TID 0000.0001)     ;
(PID.TID 0000.0001) PTRACERS_useGMRedi = /* apply GM-Redi */
(PID.TID 0000.0001)                   F
(PID.TID 0000.0001)     ;
(PID.TID 0000.0001) PTRACERS_useDWNSLP = /* apply DOWN-SLOPE Flow */
(PID.TID 0000.0001)                   F
(PID.TID 0000.0001)     ;
(PID.TID 0000.0001) PTRACERS_useKPP = /* apply KPP scheme */
(PID.TID 0000.0001)                   T
(PID.TID 0000.0001)     ;
(PID.TID 0000.0001) PTRACERS_ref = /* Reference vertical profile */
(PID.TID 0000.0001)    35 @  0.000000000000000E+00              /* K =  1: 35 */
(PID.TID 0000.0001)     ;
(PID.TID 0000.0001) PTRACERS_EvPrRn =/* tracer conc. in Evap. & Rain */
(PID.TID 0000.0001)                 1.234567000000000E+05
(PID.TID 0000.0001)     ;
(PID.TID 0000.0001)  -----------------------------------
(PID.TID 0000.0001)  tracer number :  168
(PID.TID 0000.0001) PTRACERS_names = /* Tracer short name */
(PID.TID 0000.0001)               'fe35'
(PID.TID 0000.0001)     ;
(PID.TID 0000.0001) PTRACERS_long_names = /* Tracer long name */
(PID.TID 0000.0001)               ''
(PID.TID 0000.0001)     ;
(PID.TID 0000.0001) PTRACERS_ioLabel = /* tracer IO Label */
(PID.TID 0000.0001)               '1q'
(PID.TID 0000.0001)     ;
(PID.TID 0000.0001) PTRACERS_advScheme = /* Advection Scheme */
(PID.TID 0000.0001)                      33
(PID.TID 0000.0001)     ;
(PID.TID 0000.0001) PTRACERS_SOM_Advection = /* tracer uses SOM advection scheme */
(PID.TID 0000.0001)                   F
(PID.TID 0000.0001)     ;
(PID.TID 0000.0001) PTRACERS_ImplVertAdv = /* implicit vert. advection flag */
(PID.TID 0000.0001)                   F
(PID.TID 0000.0001)     ;
(PID.TID 0000.0001) PTRACERS_MultiDimAdv = /* tracer uses Multi-Dim advection */
(PID.TID 0000.0001)                   T
(PID.TID 0000.0001)     ;
(PID.TID 0000.0001) PTRACERS_AdamsBashGtr = /* apply AB on tracer tendency */
(PID.TID 0000.0001)                   F
(PID.TID 0000.0001)     ;
(PID.TID 0000.0001) PTRACERS_AdamsBash_Tr = /* apply AB on passive tracer */
(PID.TID 0000.0001)                   F
(PID.TID 0000.0001)     ;
(PID.TID 0000.0001) PTRACERS_diffKh = /* Laplacian Diffusivity */
(PID.TID 0000.0001)                 0.000000000000000E+00
(PID.TID 0000.0001)     ;
(PID.TID 0000.0001) PTRACERS_diffK4 = /* Biharmonic Diffusivity */
(PID.TID 0000.0001)                 0.000000000000000E+00
(PID.TID 0000.0001)     ;
(PID.TID 0000.0001) PTRACERS_diffKrNr = /* Vertical Diffusivity */
(PID.TID 0000.0001)    35 @  1.000000000000000E-05              /* K =  1: 35 */
(PID.TID 0000.0001)     ;
(PID.TID 0000.0001) PTRACERS_useGMRedi = /* apply GM-Redi */
(PID.TID 0000.0001)                   F
(PID.TID 0000.0001)     ;
(PID.TID 0000.0001) PTRACERS_useDWNSLP = /* apply DOWN-SLOPE Flow */
(PID.TID 0000.0001)                   F
(PID.TID 0000.0001)     ;
(PID.TID 0000.0001) PTRACERS_useKPP = /* apply KPP scheme */
(PID.TID 0000.0001)                   T
(PID.TID 0000.0001)     ;
(PID.TID 0000.0001) PTRACERS_ref = /* Reference vertical profile */
(PID.TID 0000.0001)    35 @  0.000000000000000E+00              /* K =  1: 35 */
(PID.TID 0000.0001)     ;
(PID.TID 0000.0001) PTRACERS_EvPrRn =/* tracer conc. in Evap. & Rain */
(PID.TID 0000.0001)                 1.234567000000000E+05
(PID.TID 0000.0001)     ;
(PID.TID 0000.0001)  -----------------------------------
(PID.TID 0000.0001)  tracer number :  169
(PID.TID 0000.0001) PTRACERS_names = /* Tracer short name */
(PID.TID 0000.0001)               'fe36'
(PID.TID 0000.0001)     ;
(PID.TID 0000.0001) PTRACERS_long_names = /* Tracer long name */
(PID.TID 0000.0001)               ''
(PID.TID 0000.0001)     ;
(PID.TID 0000.0001) PTRACERS_ioLabel = /* tracer IO Label */
(PID.TID 0000.0001)               '1r'
(PID.TID 0000.0001)     ;
(PID.TID 0000.0001) PTRACERS_advScheme = /* Advection Scheme */
(PID.TID 0000.0001)                      33
(PID.TID 0000.0001)     ;
(PID.TID 0000.0001) PTRACERS_SOM_Advection = /* tracer uses SOM advection scheme */
(PID.TID 0000.0001)                   F
(PID.TID 0000.0001)     ;
(PID.TID 0000.0001) PTRACERS_ImplVertAdv = /* implicit vert. advection flag */
(PID.TID 0000.0001)                   F
(PID.TID 0000.0001)     ;
(PID.TID 0000.0001) PTRACERS_MultiDimAdv = /* tracer uses Multi-Dim advection */
(PID.TID 0000.0001)                   T
(PID.TID 0000.0001)     ;
(PID.TID 0000.0001) PTRACERS_AdamsBashGtr = /* apply AB on tracer tendency */
(PID.TID 0000.0001)                   F
(PID.TID 0000.0001)     ;
(PID.TID 0000.0001) PTRACERS_AdamsBash_Tr = /* apply AB on passive tracer */
(PID.TID 0000.0001)                   F
(PID.TID 0000.0001)     ;
(PID.TID 0000.0001) PTRACERS_diffKh = /* Laplacian Diffusivity */
(PID.TID 0000.0001)                 0.000000000000000E+00
(PID.TID 0000.0001)     ;
(PID.TID 0000.0001) PTRACERS_diffK4 = /* Biharmonic Diffusivity */
(PID.TID 0000.0001)                 0.000000000000000E+00
(PID.TID 0000.0001)     ;
(PID.TID 0000.0001) PTRACERS_diffKrNr = /* Vertical Diffusivity */
(PID.TID 0000.0001)    35 @  1.000000000000000E-05              /* K =  1: 35 */
(PID.TID 0000.0001)     ;
(PID.TID 0000.0001) PTRACERS_useGMRedi = /* apply GM-Redi */
(PID.TID 0000.0001)                   F
(PID.TID 0000.0001)     ;
(PID.TID 0000.0001) PTRACERS_useDWNSLP = /* apply DOWN-SLOPE Flow */
(PID.TID 0000.0001)                   F
(PID.TID 0000.0001)     ;
(PID.TID 0000.0001) PTRACERS_useKPP = /* apply KPP scheme */
(PID.TID 0000.0001)                   T
(PID.TID 0000.0001)     ;
(PID.TID 0000.0001) PTRACERS_ref = /* Reference vertical profile */
(PID.TID 0000.0001)    35 @  0.000000000000000E+00              /* K =  1: 35 */
(PID.TID 0000.0001)     ;
(PID.TID 0000.0001) PTRACERS_EvPrRn =/* tracer conc. in Evap. & Rain */
(PID.TID 0000.0001)                 1.234567000000000E+05
(PID.TID 0000.0001)     ;
(PID.TID 0000.0001)  -----------------------------------
(PID.TID 0000.0001)  tracer number :  170
(PID.TID 0000.0001) PTRACERS_names = /* Tracer short name */
(PID.TID 0000.0001)               'fe37'
(PID.TID 0000.0001)     ;
(PID.TID 0000.0001) PTRACERS_long_names = /* Tracer long name */
(PID.TID 0000.0001)               ''
(PID.TID 0000.0001)     ;
(PID.TID 0000.0001) PTRACERS_ioLabel = /* tracer IO Label */
(PID.TID 0000.0001)               '1s'
(PID.TID 0000.0001)     ;
(PID.TID 0000.0001) PTRACERS_advScheme = /* Advection Scheme */
(PID.TID 0000.0001)                      33
(PID.TID 0000.0001)     ;
(PID.TID 0000.0001) PTRACERS_SOM_Advection = /* tracer uses SOM advection scheme */
(PID.TID 0000.0001)                   F
(PID.TID 0000.0001)     ;
(PID.TID 0000.0001) PTRACERS_ImplVertAdv = /* implicit vert. advection flag */
(PID.TID 0000.0001)                   F
(PID.TID 0000.0001)     ;
(PID.TID 0000.0001) PTRACERS_MultiDimAdv = /* tracer uses Multi-Dim advection */
(PID.TID 0000.0001)                   T
(PID.TID 0000.0001)     ;
(PID.TID 0000.0001) PTRACERS_AdamsBashGtr = /* apply AB on tracer tendency */
(PID.TID 0000.0001)                   F
(PID.TID 0000.0001)     ;
(PID.TID 0000.0001) PTRACERS_AdamsBash_Tr = /* apply AB on passive tracer */
(PID.TID 0000.0001)                   F
(PID.TID 0000.0001)     ;
(PID.TID 0000.0001) PTRACERS_diffKh = /* Laplacian Diffusivity */
(PID.TID 0000.0001)                 0.000000000000000E+00
(PID.TID 0000.0001)     ;
(PID.TID 0000.0001) PTRACERS_diffK4 = /* Biharmonic Diffusivity */
(PID.TID 0000.0001)                 0.000000000000000E+00
(PID.TID 0000.0001)     ;
(PID.TID 0000.0001) PTRACERS_diffKrNr = /* Vertical Diffusivity */
(PID.TID 0000.0001)    35 @  1.000000000000000E-05              /* K =  1: 35 */
(PID.TID 0000.0001)     ;
(PID.TID 0000.0001) PTRACERS_useGMRedi = /* apply GM-Redi */
(PID.TID 0000.0001)                   F
(PID.TID 0000.0001)     ;
(PID.TID 0000.0001) PTRACERS_useDWNSLP = /* apply DOWN-SLOPE Flow */
(PID.TID 0000.0001)                   F
(PID.TID 0000.0001)     ;
(PID.TID 0000.0001) PTRACERS_useKPP = /* apply KPP scheme */
(PID.TID 0000.0001)                   T
(PID.TID 0000.0001)     ;
(PID.TID 0000.0001) PTRACERS_ref = /* Reference vertical profile */
(PID.TID 0000.0001)    35 @  0.000000000000000E+00              /* K =  1: 35 */
(PID.TID 0000.0001)     ;
(PID.TID 0000.0001) PTRACERS_EvPrRn =/* tracer conc. in Evap. & Rain */
(PID.TID 0000.0001)                 1.234567000000000E+05
(PID.TID 0000.0001)     ;
(PID.TID 0000.0001)  -----------------------------------
(PID.TID 0000.0001)  tracer number :  171
(PID.TID 0000.0001) PTRACERS_names = /* Tracer short name */
(PID.TID 0000.0001)               'fe38'
(PID.TID 0000.0001)     ;
(PID.TID 0000.0001) PTRACERS_long_names = /* Tracer long name */
(PID.TID 0000.0001)               ''
(PID.TID 0000.0001)     ;
(PID.TID 0000.0001) PTRACERS_ioLabel = /* tracer IO Label */
(PID.TID 0000.0001)               '1t'
(PID.TID 0000.0001)     ;
(PID.TID 0000.0001) PTRACERS_advScheme = /* Advection Scheme */
(PID.TID 0000.0001)                      33
(PID.TID 0000.0001)     ;
(PID.TID 0000.0001) PTRACERS_SOM_Advection = /* tracer uses SOM advection scheme */
(PID.TID 0000.0001)                   F
(PID.TID 0000.0001)     ;
(PID.TID 0000.0001) PTRACERS_ImplVertAdv = /* implicit vert. advection flag */
(PID.TID 0000.0001)                   F
(PID.TID 0000.0001)     ;
(PID.TID 0000.0001) PTRACERS_MultiDimAdv = /* tracer uses Multi-Dim advection */
(PID.TID 0000.0001)                   T
(PID.TID 0000.0001)     ;
(PID.TID 0000.0001) PTRACERS_AdamsBashGtr = /* apply AB on tracer tendency */
(PID.TID 0000.0001)                   F
(PID.TID 0000.0001)     ;
(PID.TID 0000.0001) PTRACERS_AdamsBash_Tr = /* apply AB on passive tracer */
(PID.TID 0000.0001)                   F
(PID.TID 0000.0001)     ;
(PID.TID 0000.0001) PTRACERS_diffKh = /* Laplacian Diffusivity */
(PID.TID 0000.0001)                 0.000000000000000E+00
(PID.TID 0000.0001)     ;
(PID.TID 0000.0001) PTRACERS_diffK4 = /* Biharmonic Diffusivity */
(PID.TID 0000.0001)                 0.000000000000000E+00
(PID.TID 0000.0001)     ;
(PID.TID 0000.0001) PTRACERS_diffKrNr = /* Vertical Diffusivity */
(PID.TID 0000.0001)    35 @  1.000000000000000E-05              /* K =  1: 35 */
(PID.TID 0000.0001)     ;
(PID.TID 0000.0001) PTRACERS_useGMRedi = /* apply GM-Redi */
(PID.TID 0000.0001)                   F
(PID.TID 0000.0001)     ;
(PID.TID 0000.0001) PTRACERS_useDWNSLP = /* apply DOWN-SLOPE Flow */
(PID.TID 0000.0001)                   F
(PID.TID 0000.0001)     ;
(PID.TID 0000.0001) PTRACERS_useKPP = /* apply KPP scheme */
(PID.TID 0000.0001)                   T
(PID.TID 0000.0001)     ;
(PID.TID 0000.0001) PTRACERS_ref = /* Reference vertical profile */
(PID.TID 0000.0001)    35 @  0.000000000000000E+00              /* K =  1: 35 */
(PID.TID 0000.0001)     ;
(PID.TID 0000.0001) PTRACERS_EvPrRn =/* tracer conc. in Evap. & Rain */
(PID.TID 0000.0001)                 1.234567000000000E+05
(PID.TID 0000.0001)     ;
(PID.TID 0000.0001)  -----------------------------------
(PID.TID 0000.0001)  tracer number :  172
(PID.TID 0000.0001) PTRACERS_names = /* Tracer short name */
(PID.TID 0000.0001)               'si01'
(PID.TID 0000.0001)     ;
(PID.TID 0000.0001) PTRACERS_long_names = /* Tracer long name */
(PID.TID 0000.0001)               ''
(PID.TID 0000.0001)     ;
(PID.TID 0000.0001) PTRACERS_ioLabel = /* tracer IO Label */
(PID.TID 0000.0001)               '1u'
(PID.TID 0000.0001)     ;
(PID.TID 0000.0001) PTRACERS_advScheme = /* Advection Scheme */
(PID.TID 0000.0001)                      33
(PID.TID 0000.0001)     ;
(PID.TID 0000.0001) PTRACERS_SOM_Advection = /* tracer uses SOM advection scheme */
(PID.TID 0000.0001)                   F
(PID.TID 0000.0001)     ;
(PID.TID 0000.0001) PTRACERS_ImplVertAdv = /* implicit vert. advection flag */
(PID.TID 0000.0001)                   F
(PID.TID 0000.0001)     ;
(PID.TID 0000.0001) PTRACERS_MultiDimAdv = /* tracer uses Multi-Dim advection */
(PID.TID 0000.0001)                   T
(PID.TID 0000.0001)     ;
(PID.TID 0000.0001) PTRACERS_AdamsBashGtr = /* apply AB on tracer tendency */
(PID.TID 0000.0001)                   F
(PID.TID 0000.0001)     ;
(PID.TID 0000.0001) PTRACERS_AdamsBash_Tr = /* apply AB on passive tracer */
(PID.TID 0000.0001)                   F
(PID.TID 0000.0001)     ;
(PID.TID 0000.0001) PTRACERS_diffKh = /* Laplacian Diffusivity */
(PID.TID 0000.0001)                 0.000000000000000E+00
(PID.TID 0000.0001)     ;
(PID.TID 0000.0001) PTRACERS_diffK4 = /* Biharmonic Diffusivity */
(PID.TID 0000.0001)                 0.000000000000000E+00
(PID.TID 0000.0001)     ;
(PID.TID 0000.0001) PTRACERS_diffKrNr = /* Vertical Diffusivity */
(PID.TID 0000.0001)    35 @  1.000000000000000E-05              /* K =  1: 35 */
(PID.TID 0000.0001)     ;
(PID.TID 0000.0001) PTRACERS_useGMRedi = /* apply GM-Redi */
(PID.TID 0000.0001)                   F
(PID.TID 0000.0001)     ;
(PID.TID 0000.0001) PTRACERS_useDWNSLP = /* apply DOWN-SLOPE Flow */
(PID.TID 0000.0001)                   F
(PID.TID 0000.0001)     ;
(PID.TID 0000.0001) PTRACERS_useKPP = /* apply KPP scheme */
(PID.TID 0000.0001)                   T
(PID.TID 0000.0001)     ;
(PID.TID 0000.0001) PTRACERS_ref = /* Reference vertical profile */
(PID.TID 0000.0001)    35 @  0.000000000000000E+00              /* K =  1: 35 */
(PID.TID 0000.0001)     ;
(PID.TID 0000.0001) PTRACERS_EvPrRn =/* tracer conc. in Evap. & Rain */
(PID.TID 0000.0001)                 1.234567000000000E+05
(PID.TID 0000.0001)     ;
(PID.TID 0000.0001)  -----------------------------------
(PID.TID 0000.0001)  tracer number :  173
(PID.TID 0000.0001) PTRACERS_names = /* Tracer short name */
(PID.TID 0000.0001)               'si02'
(PID.TID 0000.0001)     ;
(PID.TID 0000.0001) PTRACERS_long_names = /* Tracer long name */
(PID.TID 0000.0001)               ''
(PID.TID 0000.0001)     ;
(PID.TID 0000.0001) PTRACERS_ioLabel = /* tracer IO Label */
(PID.TID 0000.0001)               '1v'
(PID.TID 0000.0001)     ;
(PID.TID 0000.0001) PTRACERS_advScheme = /* Advection Scheme */
(PID.TID 0000.0001)                      33
(PID.TID 0000.0001)     ;
(PID.TID 0000.0001) PTRACERS_SOM_Advection = /* tracer uses SOM advection scheme */
(PID.TID 0000.0001)                   F
(PID.TID 0000.0001)     ;
(PID.TID 0000.0001) PTRACERS_ImplVertAdv = /* implicit vert. advection flag */
(PID.TID 0000.0001)                   F
(PID.TID 0000.0001)     ;
(PID.TID 0000.0001) PTRACERS_MultiDimAdv = /* tracer uses Multi-Dim advection */
(PID.TID 0000.0001)                   T
(PID.TID 0000.0001)     ;
(PID.TID 0000.0001) PTRACERS_AdamsBashGtr = /* apply AB on tracer tendency */
(PID.TID 0000.0001)                   F
(PID.TID 0000.0001)     ;
(PID.TID 0000.0001) PTRACERS_AdamsBash_Tr = /* apply AB on passive tracer */
(PID.TID 0000.0001)                   F
(PID.TID 0000.0001)     ;
(PID.TID 0000.0001) PTRACERS_diffKh = /* Laplacian Diffusivity */
(PID.TID 0000.0001)                 0.000000000000000E+00
(PID.TID 0000.0001)     ;
(PID.TID 0000.0001) PTRACERS_diffK4 = /* Biharmonic Diffusivity */
(PID.TID 0000.0001)                 0.000000000000000E+00
(PID.TID 0000.0001)     ;
(PID.TID 0000.0001) PTRACERS_diffKrNr = /* Vertical Diffusivity */
(PID.TID 0000.0001)    35 @  1.000000000000000E-05              /* K =  1: 35 */
(PID.TID 0000.0001)     ;
(PID.TID 0000.0001) PTRACERS_useGMRedi = /* apply GM-Redi */
(PID.TID 0000.0001)                   F
(PID.TID 0000.0001)     ;
(PID.TID 0000.0001) PTRACERS_useDWNSLP = /* apply DOWN-SLOPE Flow */
(PID.TID 0000.0001)                   F
(PID.TID 0000.0001)     ;
(PID.TID 0000.0001) PTRACERS_useKPP = /* apply KPP scheme */
(PID.TID 0000.0001)                   T
(PID.TID 0000.0001)     ;
(PID.TID 0000.0001) PTRACERS_ref = /* Reference vertical profile */
(PID.TID 0000.0001)    35 @  0.000000000000000E+00              /* K =  1: 35 */
(PID.TID 0000.0001)     ;
(PID.TID 0000.0001) PTRACERS_EvPrRn =/* tracer conc. in Evap. & Rain */
(PID.TID 0000.0001)                 1.234567000000000E+05
(PID.TID 0000.0001)     ;
(PID.TID 0000.0001)  -----------------------------------
(PID.TID 0000.0001)  tracer number :  174
(PID.TID 0000.0001) PTRACERS_names = /* Tracer short name */
(PID.TID 0000.0001)               'si03'
(PID.TID 0000.0001)     ;
(PID.TID 0000.0001) PTRACERS_long_names = /* Tracer long name */
(PID.TID 0000.0001)               ''
(PID.TID 0000.0001)     ;
(PID.TID 0000.0001) PTRACERS_ioLabel = /* tracer IO Label */
(PID.TID 0000.0001)               '1w'
(PID.TID 0000.0001)     ;
(PID.TID 0000.0001) PTRACERS_advScheme = /* Advection Scheme */
(PID.TID 0000.0001)                      33
(PID.TID 0000.0001)     ;
(PID.TID 0000.0001) PTRACERS_SOM_Advection = /* tracer uses SOM advection scheme */
(PID.TID 0000.0001)                   F
(PID.TID 0000.0001)     ;
(PID.TID 0000.0001) PTRACERS_ImplVertAdv = /* implicit vert. advection flag */
(PID.TID 0000.0001)                   F
(PID.TID 0000.0001)     ;
(PID.TID 0000.0001) PTRACERS_MultiDimAdv = /* tracer uses Multi-Dim advection */
(PID.TID 0000.0001)                   T
(PID.TID 0000.0001)     ;
(PID.TID 0000.0001) PTRACERS_AdamsBashGtr = /* apply AB on tracer tendency */
(PID.TID 0000.0001)                   F
(PID.TID 0000.0001)     ;
(PID.TID 0000.0001) PTRACERS_AdamsBash_Tr = /* apply AB on passive tracer */
(PID.TID 0000.0001)                   F
(PID.TID 0000.0001)     ;
(PID.TID 0000.0001) PTRACERS_diffKh = /* Laplacian Diffusivity */
(PID.TID 0000.0001)                 0.000000000000000E+00
(PID.TID 0000.0001)     ;
(PID.TID 0000.0001) PTRACERS_diffK4 = /* Biharmonic Diffusivity */
(PID.TID 0000.0001)                 0.000000000000000E+00
(PID.TID 0000.0001)     ;
(PID.TID 0000.0001) PTRACERS_diffKrNr = /* Vertical Diffusivity */
(PID.TID 0000.0001)    35 @  1.000000000000000E-05              /* K =  1: 35 */
(PID.TID 0000.0001)     ;
(PID.TID 0000.0001) PTRACERS_useGMRedi = /* apply GM-Redi */
(PID.TID 0000.0001)                   F
(PID.TID 0000.0001)     ;
(PID.TID 0000.0001) PTRACERS_useDWNSLP = /* apply DOWN-SLOPE Flow */
(PID.TID 0000.0001)                   F
(PID.TID 0000.0001)     ;
(PID.TID 0000.0001) PTRACERS_useKPP = /* apply KPP scheme */
(PID.TID 0000.0001)                   T
(PID.TID 0000.0001)     ;
(PID.TID 0000.0001) PTRACERS_ref = /* Reference vertical profile */
(PID.TID 0000.0001)    35 @  0.000000000000000E+00              /* K =  1: 35 */
(PID.TID 0000.0001)     ;
(PID.TID 0000.0001) PTRACERS_EvPrRn =/* tracer conc. in Evap. & Rain */
(PID.TID 0000.0001)                 1.234567000000000E+05
(PID.TID 0000.0001)     ;
(PID.TID 0000.0001)  -----------------------------------
(PID.TID 0000.0001)  tracer number :  175
(PID.TID 0000.0001) PTRACERS_names = /* Tracer short name */
(PID.TID 0000.0001)               'si04'
(PID.TID 0000.0001)     ;
(PID.TID 0000.0001) PTRACERS_long_names = /* Tracer long name */
(PID.TID 0000.0001)               ''
(PID.TID 0000.0001)     ;
(PID.TID 0000.0001) PTRACERS_ioLabel = /* tracer IO Label */
(PID.TID 0000.0001)               '1x'
(PID.TID 0000.0001)     ;
(PID.TID 0000.0001) PTRACERS_advScheme = /* Advection Scheme */
(PID.TID 0000.0001)                      33
(PID.TID 0000.0001)     ;
(PID.TID 0000.0001) PTRACERS_SOM_Advection = /* tracer uses SOM advection scheme */
(PID.TID 0000.0001)                   F
(PID.TID 0000.0001)     ;
(PID.TID 0000.0001) PTRACERS_ImplVertAdv = /* implicit vert. advection flag */
(PID.TID 0000.0001)                   F
(PID.TID 0000.0001)     ;
(PID.TID 0000.0001) PTRACERS_MultiDimAdv = /* tracer uses Multi-Dim advection */
(PID.TID 0000.0001)                   T
(PID.TID 0000.0001)     ;
(PID.TID 0000.0001) PTRACERS_AdamsBashGtr = /* apply AB on tracer tendency */
(PID.TID 0000.0001)                   F
(PID.TID 0000.0001)     ;
(PID.TID 0000.0001) PTRACERS_AdamsBash_Tr = /* apply AB on passive tracer */
(PID.TID 0000.0001)                   F
(PID.TID 0000.0001)     ;
(PID.TID 0000.0001) PTRACERS_diffKh = /* Laplacian Diffusivity */
(PID.TID 0000.0001)                 0.000000000000000E+00
(PID.TID 0000.0001)     ;
(PID.TID 0000.0001) PTRACERS_diffK4 = /* Biharmonic Diffusivity */
(PID.TID 0000.0001)                 0.000000000000000E+00
(PID.TID 0000.0001)     ;
(PID.TID 0000.0001) PTRACERS_diffKrNr = /* Vertical Diffusivity */
(PID.TID 0000.0001)    35 @  1.000000000000000E-05              /* K =  1: 35 */
(PID.TID 0000.0001)     ;
(PID.TID 0000.0001) PTRACERS_useGMRedi = /* apply GM-Redi */
(PID.TID 0000.0001)                   F
(PID.TID 0000.0001)     ;
(PID.TID 0000.0001) PTRACERS_useDWNSLP = /* apply DOWN-SLOPE Flow */
(PID.TID 0000.0001)                   F
(PID.TID 0000.0001)     ;
(PID.TID 0000.0001) PTRACERS_useKPP = /* apply KPP scheme */
(PID.TID 0000.0001)                   T
(PID.TID 0000.0001)     ;
(PID.TID 0000.0001) PTRACERS_ref = /* Reference vertical profile */
(PID.TID 0000.0001)    35 @  0.000000000000000E+00              /* K =  1: 35 */
(PID.TID 0000.0001)     ;
(PID.TID 0000.0001) PTRACERS_EvPrRn =/* tracer conc. in Evap. & Rain */
(PID.TID 0000.0001)                 1.234567000000000E+05
(PID.TID 0000.0001)     ;
(PID.TID 0000.0001)  -----------------------------------
(PID.TID 0000.0001)  tracer number :  176
(PID.TID 0000.0001) PTRACERS_names = /* Tracer short name */
(PID.TID 0000.0001)               'si05'
(PID.TID 0000.0001)     ;
(PID.TID 0000.0001) PTRACERS_long_names = /* Tracer long name */
(PID.TID 0000.0001)               ''
(PID.TID 0000.0001)     ;
(PID.TID 0000.0001) PTRACERS_ioLabel = /* tracer IO Label */
(PID.TID 0000.0001)               '1y'
(PID.TID 0000.0001)     ;
(PID.TID 0000.0001) PTRACERS_advScheme = /* Advection Scheme */
(PID.TID 0000.0001)                      33
(PID.TID 0000.0001)     ;
(PID.TID 0000.0001) PTRACERS_SOM_Advection = /* tracer uses SOM advection scheme */
(PID.TID 0000.0001)                   F
(PID.TID 0000.0001)     ;
(PID.TID 0000.0001) PTRACERS_ImplVertAdv = /* implicit vert. advection flag */
(PID.TID 0000.0001)                   F
(PID.TID 0000.0001)     ;
(PID.TID 0000.0001) PTRACERS_MultiDimAdv = /* tracer uses Multi-Dim advection */
(PID.TID 0000.0001)                   T
(PID.TID 0000.0001)     ;
(PID.TID 0000.0001) PTRACERS_AdamsBashGtr = /* apply AB on tracer tendency */
(PID.TID 0000.0001)                   F
(PID.TID 0000.0001)     ;
(PID.TID 0000.0001) PTRACERS_AdamsBash_Tr = /* apply AB on passive tracer */
(PID.TID 0000.0001)                   F
(PID.TID 0000.0001)     ;
(PID.TID 0000.0001) PTRACERS_diffKh = /* Laplacian Diffusivity */
(PID.TID 0000.0001)                 0.000000000000000E+00
(PID.TID 0000.0001)     ;
(PID.TID 0000.0001) PTRACERS_diffK4 = /* Biharmonic Diffusivity */
(PID.TID 0000.0001)                 0.000000000000000E+00
(PID.TID 0000.0001)     ;
(PID.TID 0000.0001) PTRACERS_diffKrNr = /* Vertical Diffusivity */
(PID.TID 0000.0001)    35 @  1.000000000000000E-05              /* K =  1: 35 */
(PID.TID 0000.0001)     ;
(PID.TID 0000.0001) PTRACERS_useGMRedi = /* apply GM-Redi */
(PID.TID 0000.0001)                   F
(PID.TID 0000.0001)     ;
(PID.TID 0000.0001) PTRACERS_useDWNSLP = /* apply DOWN-SLOPE Flow */
(PID.TID 0000.0001)                   F
(PID.TID 0000.0001)     ;
(PID.TID 0000.0001) PTRACERS_useKPP = /* apply KPP scheme */
(PID.TID 0000.0001)                   T
(PID.TID 0000.0001)     ;
(PID.TID 0000.0001) PTRACERS_ref = /* Reference vertical profile */
(PID.TID 0000.0001)    35 @  0.000000000000000E+00              /* K =  1: 35 */
(PID.TID 0000.0001)     ;
(PID.TID 0000.0001) PTRACERS_EvPrRn =/* tracer conc. in Evap. & Rain */
(PID.TID 0000.0001)                 1.234567000000000E+05
(PID.TID 0000.0001)     ;
(PID.TID 0000.0001)  -----------------------------------
(PID.TID 0000.0001)  tracer number :  177
(PID.TID 0000.0001) PTRACERS_names = /* Tracer short name */
(PID.TID 0000.0001)               'si06'
(PID.TID 0000.0001)     ;
(PID.TID 0000.0001) PTRACERS_long_names = /* Tracer long name */
(PID.TID 0000.0001)               ''
(PID.TID 0000.0001)     ;
(PID.TID 0000.0001) PTRACERS_ioLabel = /* tracer IO Label */
(PID.TID 0000.0001)               '1z'
(PID.TID 0000.0001)     ;
(PID.TID 0000.0001) PTRACERS_advScheme = /* Advection Scheme */
(PID.TID 0000.0001)                      33
(PID.TID 0000.0001)     ;
(PID.TID 0000.0001) PTRACERS_SOM_Advection = /* tracer uses SOM advection scheme */
(PID.TID 0000.0001)                   F
(PID.TID 0000.0001)     ;
(PID.TID 0000.0001) PTRACERS_ImplVertAdv = /* implicit vert. advection flag */
(PID.TID 0000.0001)                   F
(PID.TID 0000.0001)     ;
(PID.TID 0000.0001) PTRACERS_MultiDimAdv = /* tracer uses Multi-Dim advection */
(PID.TID 0000.0001)                   T
(PID.TID 0000.0001)     ;
(PID.TID 0000.0001) PTRACERS_AdamsBashGtr = /* apply AB on tracer tendency */
(PID.TID 0000.0001)                   F
(PID.TID 0000.0001)     ;
(PID.TID 0000.0001) PTRACERS_AdamsBash_Tr = /* apply AB on passive tracer */
(PID.TID 0000.0001)                   F
(PID.TID 0000.0001)     ;
(PID.TID 0000.0001) PTRACERS_diffKh = /* Laplacian Diffusivity */
(PID.TID 0000.0001)                 0.000000000000000E+00
(PID.TID 0000.0001)     ;
(PID.TID 0000.0001) PTRACERS_diffK4 = /* Biharmonic Diffusivity */
(PID.TID 0000.0001)                 0.000000000000000E+00
(PID.TID 0000.0001)     ;
(PID.TID 0000.0001) PTRACERS_diffKrNr = /* Vertical Diffusivity */
(PID.TID 0000.0001)    35 @  1.000000000000000E-05              /* K =  1: 35 */
(PID.TID 0000.0001)     ;
(PID.TID 0000.0001) PTRACERS_useGMRedi = /* apply GM-Redi */
(PID.TID 0000.0001)                   F
(PID.TID 0000.0001)     ;
(PID.TID 0000.0001) PTRACERS_useDWNSLP = /* apply DOWN-SLOPE Flow */
(PID.TID 0000.0001)                   F
(PID.TID 0000.0001)     ;
(PID.TID 0000.0001) PTRACERS_useKPP = /* apply KPP scheme */
(PID.TID 0000.0001)                   T
(PID.TID 0000.0001)     ;
(PID.TID 0000.0001) PTRACERS_ref = /* Reference vertical profile */
(PID.TID 0000.0001)    35 @  0.000000000000000E+00              /* K =  1: 35 */
(PID.TID 0000.0001)     ;
(PID.TID 0000.0001) PTRACERS_EvPrRn =/* tracer conc. in Evap. & Rain */
(PID.TID 0000.0001)                 1.234567000000000E+05
(PID.TID 0000.0001)     ;
(PID.TID 0000.0001)  -----------------------------------
(PID.TID 0000.0001)  tracer number :  178
(PID.TID 0000.0001) PTRACERS_names = /* Tracer short name */
(PID.TID 0000.0001)               'si07'
(PID.TID 0000.0001)     ;
(PID.TID 0000.0001) PTRACERS_long_names = /* Tracer long name */
(PID.TID 0000.0001)               ''
(PID.TID 0000.0001)     ;
(PID.TID 0000.0001) PTRACERS_ioLabel = /* tracer IO Label */
(PID.TID 0000.0001)               '1A'
(PID.TID 0000.0001)     ;
(PID.TID 0000.0001) PTRACERS_advScheme = /* Advection Scheme */
(PID.TID 0000.0001)                      33
(PID.TID 0000.0001)     ;
(PID.TID 0000.0001) PTRACERS_SOM_Advection = /* tracer uses SOM advection scheme */
(PID.TID 0000.0001)                   F
(PID.TID 0000.0001)     ;
(PID.TID 0000.0001) PTRACERS_ImplVertAdv = /* implicit vert. advection flag */
(PID.TID 0000.0001)                   F
(PID.TID 0000.0001)     ;
(PID.TID 0000.0001) PTRACERS_MultiDimAdv = /* tracer uses Multi-Dim advection */
(PID.TID 0000.0001)                   T
(PID.TID 0000.0001)     ;
(PID.TID 0000.0001) PTRACERS_AdamsBashGtr = /* apply AB on tracer tendency */
(PID.TID 0000.0001)                   F
(PID.TID 0000.0001)     ;
(PID.TID 0000.0001) PTRACERS_AdamsBash_Tr = /* apply AB on passive tracer */
(PID.TID 0000.0001)                   F
(PID.TID 0000.0001)     ;
(PID.TID 0000.0001) PTRACERS_diffKh = /* Laplacian Diffusivity */
(PID.TID 0000.0001)                 0.000000000000000E+00
(PID.TID 0000.0001)     ;
(PID.TID 0000.0001) PTRACERS_diffK4 = /* Biharmonic Diffusivity */
(PID.TID 0000.0001)                 0.000000000000000E+00
(PID.TID 0000.0001)     ;
(PID.TID 0000.0001) PTRACERS_diffKrNr = /* Vertical Diffusivity */
(PID.TID 0000.0001)    35 @  1.000000000000000E-05              /* K =  1: 35 */
(PID.TID 0000.0001)     ;
(PID.TID 0000.0001) PTRACERS_useGMRedi = /* apply GM-Redi */
(PID.TID 0000.0001)                   F
(PID.TID 0000.0001)     ;
(PID.TID 0000.0001) PTRACERS_useDWNSLP = /* apply DOWN-SLOPE Flow */
(PID.TID 0000.0001)                   F
(PID.TID 0000.0001)     ;
(PID.TID 0000.0001) PTRACERS_useKPP = /* apply KPP scheme */
(PID.TID 0000.0001)                   T
(PID.TID 0000.0001)     ;
(PID.TID 0000.0001) PTRACERS_ref = /* Reference vertical profile */
(PID.TID 0000.0001)    35 @  0.000000000000000E+00              /* K =  1: 35 */
(PID.TID 0000.0001)     ;
(PID.TID 0000.0001) PTRACERS_EvPrRn =/* tracer conc. in Evap. & Rain */
(PID.TID 0000.0001)                 1.234567000000000E+05
(PID.TID 0000.0001)     ;
(PID.TID 0000.0001)  -----------------------------------
(PID.TID 0000.0001)  tracer number :  179
(PID.TID 0000.0001) PTRACERS_names = /* Tracer short name */
(PID.TID 0000.0001)               'si08'
(PID.TID 0000.0001)     ;
(PID.TID 0000.0001) PTRACERS_long_names = /* Tracer long name */
(PID.TID 0000.0001)               ''
(PID.TID 0000.0001)     ;
(PID.TID 0000.0001) PTRACERS_ioLabel = /* tracer IO Label */
(PID.TID 0000.0001)               '1B'
(PID.TID 0000.0001)     ;
(PID.TID 0000.0001) PTRACERS_advScheme = /* Advection Scheme */
(PID.TID 0000.0001)                      33
(PID.TID 0000.0001)     ;
(PID.TID 0000.0001) PTRACERS_SOM_Advection = /* tracer uses SOM advection scheme */
(PID.TID 0000.0001)                   F
(PID.TID 0000.0001)     ;
(PID.TID 0000.0001) PTRACERS_ImplVertAdv = /* implicit vert. advection flag */
(PID.TID 0000.0001)                   F
(PID.TID 0000.0001)     ;
(PID.TID 0000.0001) PTRACERS_MultiDimAdv = /* tracer uses Multi-Dim advection */
(PID.TID 0000.0001)                   T
(PID.TID 0000.0001)     ;
(PID.TID 0000.0001) PTRACERS_AdamsBashGtr = /* apply AB on tracer tendency */
(PID.TID 0000.0001)                   F
(PID.TID 0000.0001)     ;
(PID.TID 0000.0001) PTRACERS_AdamsBash_Tr = /* apply AB on passive tracer */
(PID.TID 0000.0001)                   F
(PID.TID 0000.0001)     ;
(PID.TID 0000.0001) PTRACERS_diffKh = /* Laplacian Diffusivity */
(PID.TID 0000.0001)                 0.000000000000000E+00
(PID.TID 0000.0001)     ;
(PID.TID 0000.0001) PTRACERS_diffK4 = /* Biharmonic Diffusivity */
(PID.TID 0000.0001)                 0.000000000000000E+00
(PID.TID 0000.0001)     ;
(PID.TID 0000.0001) PTRACERS_diffKrNr = /* Vertical Diffusivity */
(PID.TID 0000.0001)    35 @  1.000000000000000E-05              /* K =  1: 35 */
(PID.TID 0000.0001)     ;
(PID.TID 0000.0001) PTRACERS_useGMRedi = /* apply GM-Redi */
(PID.TID 0000.0001)                   F
(PID.TID 0000.0001)     ;
(PID.TID 0000.0001) PTRACERS_useDWNSLP = /* apply DOWN-SLOPE Flow */
(PID.TID 0000.0001)                   F
(PID.TID 0000.0001)     ;
(PID.TID 0000.0001) PTRACERS_useKPP = /* apply KPP scheme */
(PID.TID 0000.0001)                   T
(PID.TID 0000.0001)     ;
(PID.TID 0000.0001) PTRACERS_ref = /* Reference vertical profile */
(PID.TID 0000.0001)    35 @  0.000000000000000E+00              /* K =  1: 35 */
(PID.TID 0000.0001)     ;
(PID.TID 0000.0001) PTRACERS_EvPrRn =/* tracer conc. in Evap. & Rain */
(PID.TID 0000.0001)                 1.234567000000000E+05
(PID.TID 0000.0001)     ;
(PID.TID 0000.0001)  -----------------------------------
(PID.TID 0000.0001)  tracer number :  180
(PID.TID 0000.0001) PTRACERS_names = /* Tracer short name */
(PID.TID 0000.0001)               'si09'
(PID.TID 0000.0001)     ;
(PID.TID 0000.0001) PTRACERS_long_names = /* Tracer long name */
(PID.TID 0000.0001)               ''
(PID.TID 0000.0001)     ;
(PID.TID 0000.0001) PTRACERS_ioLabel = /* tracer IO Label */
(PID.TID 0000.0001)               '1C'
(PID.TID 0000.0001)     ;
(PID.TID 0000.0001) PTRACERS_advScheme = /* Advection Scheme */
(PID.TID 0000.0001)                      33
(PID.TID 0000.0001)     ;
(PID.TID 0000.0001) PTRACERS_SOM_Advection = /* tracer uses SOM advection scheme */
(PID.TID 0000.0001)                   F
(PID.TID 0000.0001)     ;
(PID.TID 0000.0001) PTRACERS_ImplVertAdv = /* implicit vert. advection flag */
(PID.TID 0000.0001)                   F
(PID.TID 0000.0001)     ;
(PID.TID 0000.0001) PTRACERS_MultiDimAdv = /* tracer uses Multi-Dim advection */
(PID.TID 0000.0001)                   T
(PID.TID 0000.0001)     ;
(PID.TID 0000.0001) PTRACERS_AdamsBashGtr = /* apply AB on tracer tendency */
(PID.TID 0000.0001)                   F
(PID.TID 0000.0001)     ;
(PID.TID 0000.0001) PTRACERS_AdamsBash_Tr = /* apply AB on passive tracer */
(PID.TID 0000.0001)                   F
(PID.TID 0000.0001)     ;
(PID.TID 0000.0001) PTRACERS_diffKh = /* Laplacian Diffusivity */
(PID.TID 0000.0001)                 0.000000000000000E+00
(PID.TID 0000.0001)     ;
(PID.TID 0000.0001) PTRACERS_diffK4 = /* Biharmonic Diffusivity */
(PID.TID 0000.0001)                 0.000000000000000E+00
(PID.TID 0000.0001)     ;
(PID.TID 0000.0001) PTRACERS_diffKrNr = /* Vertical Diffusivity */
(PID.TID 0000.0001)    35 @  1.000000000000000E-05              /* K =  1: 35 */
(PID.TID 0000.0001)     ;
(PID.TID 0000.0001) PTRACERS_useGMRedi = /* apply GM-Redi */
(PID.TID 0000.0001)                   F
(PID.TID 0000.0001)     ;
(PID.TID 0000.0001) PTRACERS_useDWNSLP = /* apply DOWN-SLOPE Flow */
(PID.TID 0000.0001)                   F
(PID.TID 0000.0001)     ;
(PID.TID 0000.0001) PTRACERS_useKPP = /* apply KPP scheme */
(PID.TID 0000.0001)                   T
(PID.TID 0000.0001)     ;
(PID.TID 0000.0001) PTRACERS_ref = /* Reference vertical profile */
(PID.TID 0000.0001)    35 @  0.000000000000000E+00              /* K =  1: 35 */
(PID.TID 0000.0001)     ;
(PID.TID 0000.0001) PTRACERS_EvPrRn =/* tracer conc. in Evap. & Rain */
(PID.TID 0000.0001)                 1.234567000000000E+05
(PID.TID 0000.0001)     ;
(PID.TID 0000.0001)  -----------------------------------
(PID.TID 0000.0001)  tracer number :  181
(PID.TID 0000.0001) PTRACERS_names = /* Tracer short name */
(PID.TID 0000.0001)               'si10'
(PID.TID 0000.0001)     ;
(PID.TID 0000.0001) PTRACERS_long_names = /* Tracer long name */
(PID.TID 0000.0001)               ''
(PID.TID 0000.0001)     ;
(PID.TID 0000.0001) PTRACERS_ioLabel = /* tracer IO Label */
(PID.TID 0000.0001)               '1D'
(PID.TID 0000.0001)     ;
(PID.TID 0000.0001) PTRACERS_advScheme = /* Advection Scheme */
(PID.TID 0000.0001)                      33
(PID.TID 0000.0001)     ;
(PID.TID 0000.0001) PTRACERS_SOM_Advection = /* tracer uses SOM advection scheme */
(PID.TID 0000.0001)                   F
(PID.TID 0000.0001)     ;
(PID.TID 0000.0001) PTRACERS_ImplVertAdv = /* implicit vert. advection flag */
(PID.TID 0000.0001)                   F
(PID.TID 0000.0001)     ;
(PID.TID 0000.0001) PTRACERS_MultiDimAdv = /* tracer uses Multi-Dim advection */
(PID.TID 0000.0001)                   T
(PID.TID 0000.0001)     ;
(PID.TID 0000.0001) PTRACERS_AdamsBashGtr = /* apply AB on tracer tendency */
(PID.TID 0000.0001)                   F
(PID.TID 0000.0001)     ;
(PID.TID 0000.0001) PTRACERS_AdamsBash_Tr = /* apply AB on passive tracer */
(PID.TID 0000.0001)                   F
(PID.TID 0000.0001)     ;
(PID.TID 0000.0001) PTRACERS_diffKh = /* Laplacian Diffusivity */
(PID.TID 0000.0001)                 0.000000000000000E+00
(PID.TID 0000.0001)     ;
(PID.TID 0000.0001) PTRACERS_diffK4 = /* Biharmonic Diffusivity */
(PID.TID 0000.0001)                 0.000000000000000E+00
(PID.TID 0000.0001)     ;
(PID.TID 0000.0001) PTRACERS_diffKrNr = /* Vertical Diffusivity */
(PID.TID 0000.0001)    35 @  1.000000000000000E-05              /* K =  1: 35 */
(PID.TID 0000.0001)     ;
(PID.TID 0000.0001) PTRACERS_useGMRedi = /* apply GM-Redi */
(PID.TID 0000.0001)                   F
(PID.TID 0000.0001)     ;
(PID.TID 0000.0001) PTRACERS_useDWNSLP = /* apply DOWN-SLOPE Flow */
(PID.TID 0000.0001)                   F
(PID.TID 0000.0001)     ;
(PID.TID 0000.0001) PTRACERS_useKPP = /* apply KPP scheme */
(PID.TID 0000.0001)                   T
(PID.TID 0000.0001)     ;
(PID.TID 0000.0001) PTRACERS_ref = /* Reference vertical profile */
(PID.TID 0000.0001)    35 @  0.000000000000000E+00              /* K =  1: 35 */
(PID.TID 0000.0001)     ;
(PID.TID 0000.0001) PTRACERS_EvPrRn =/* tracer conc. in Evap. & Rain */
(PID.TID 0000.0001)                 1.234567000000000E+05
(PID.TID 0000.0001)     ;
(PID.TID 0000.0001)  -----------------------------------
(PID.TID 0000.0001)  tracer number :  182
(PID.TID 0000.0001) PTRACERS_names = /* Tracer short name */
(PID.TID 0000.0001)               'si11'
(PID.TID 0000.0001)     ;
(PID.TID 0000.0001) PTRACERS_long_names = /* Tracer long name */
(PID.TID 0000.0001)               ''
(PID.TID 0000.0001)     ;
(PID.TID 0000.0001) PTRACERS_ioLabel = /* tracer IO Label */
(PID.TID 0000.0001)               '1E'
(PID.TID 0000.0001)     ;
(PID.TID 0000.0001) PTRACERS_advScheme = /* Advection Scheme */
(PID.TID 0000.0001)                      33
(PID.TID 0000.0001)     ;
(PID.TID 0000.0001) PTRACERS_SOM_Advection = /* tracer uses SOM advection scheme */
(PID.TID 0000.0001)                   F
(PID.TID 0000.0001)     ;
(PID.TID 0000.0001) PTRACERS_ImplVertAdv = /* implicit vert. advection flag */
(PID.TID 0000.0001)                   F
(PID.TID 0000.0001)     ;
(PID.TID 0000.0001) PTRACERS_MultiDimAdv = /* tracer uses Multi-Dim advection */
(PID.TID 0000.0001)                   T
(PID.TID 0000.0001)     ;
(PID.TID 0000.0001) PTRACERS_AdamsBashGtr = /* apply AB on tracer tendency */
(PID.TID 0000.0001)                   F
(PID.TID 0000.0001)     ;
(PID.TID 0000.0001) PTRACERS_AdamsBash_Tr = /* apply AB on passive tracer */
(PID.TID 0000.0001)                   F
(PID.TID 0000.0001)     ;
(PID.TID 0000.0001) PTRACERS_diffKh = /* Laplacian Diffusivity */
(PID.TID 0000.0001)                 0.000000000000000E+00
(PID.TID 0000.0001)     ;
(PID.TID 0000.0001) PTRACERS_diffK4 = /* Biharmonic Diffusivity */
(PID.TID 0000.0001)                 0.000000000000000E+00
(PID.TID 0000.0001)     ;
(PID.TID 0000.0001) PTRACERS_diffKrNr = /* Vertical Diffusivity */
(PID.TID 0000.0001)    35 @  1.000000000000000E-05              /* K =  1: 35 */
(PID.TID 0000.0001)     ;
(PID.TID 0000.0001) PTRACERS_useGMRedi = /* apply GM-Redi */
(PID.TID 0000.0001)                   F
(PID.TID 0000.0001)     ;
(PID.TID 0000.0001) PTRACERS_useDWNSLP = /* apply DOWN-SLOPE Flow */
(PID.TID 0000.0001)                   F
(PID.TID 0000.0001)     ;
(PID.TID 0000.0001) PTRACERS_useKPP = /* apply KPP scheme */
(PID.TID 0000.0001)                   T
(PID.TID 0000.0001)     ;
(PID.TID 0000.0001) PTRACERS_ref = /* Reference vertical profile */
(PID.TID 0000.0001)    35 @  0.000000000000000E+00              /* K =  1: 35 */
(PID.TID 0000.0001)     ;
(PID.TID 0000.0001) PTRACERS_EvPrRn =/* tracer conc. in Evap. & Rain */
(PID.TID 0000.0001)                 1.234567000000000E+05
(PID.TID 0000.0001)     ;
(PID.TID 0000.0001)  -----------------------------------
(PID.TID 0000.0001)  tracer number :  183
(PID.TID 0000.0001) PTRACERS_names = /* Tracer short name */
(PID.TID 0000.0001)               'si12'
(PID.TID 0000.0001)     ;
(PID.TID 0000.0001) PTRACERS_long_names = /* Tracer long name */
(PID.TID 0000.0001)               ''
(PID.TID 0000.0001)     ;
(PID.TID 0000.0001) PTRACERS_ioLabel = /* tracer IO Label */
(PID.TID 0000.0001)               '1F'
(PID.TID 0000.0001)     ;
(PID.TID 0000.0001) PTRACERS_advScheme = /* Advection Scheme */
(PID.TID 0000.0001)                      33
(PID.TID 0000.0001)     ;
(PID.TID 0000.0001) PTRACERS_SOM_Advection = /* tracer uses SOM advection scheme */
(PID.TID 0000.0001)                   F
(PID.TID 0000.0001)     ;
(PID.TID 0000.0001) PTRACERS_ImplVertAdv = /* implicit vert. advection flag */
(PID.TID 0000.0001)                   F
(PID.TID 0000.0001)     ;
(PID.TID 0000.0001) PTRACERS_MultiDimAdv = /* tracer uses Multi-Dim advection */
(PID.TID 0000.0001)                   T
(PID.TID 0000.0001)     ;
(PID.TID 0000.0001) PTRACERS_AdamsBashGtr = /* apply AB on tracer tendency */
(PID.TID 0000.0001)                   F
(PID.TID 0000.0001)     ;
(PID.TID 0000.0001) PTRACERS_AdamsBash_Tr = /* apply AB on passive tracer */
(PID.TID 0000.0001)                   F
(PID.TID 0000.0001)     ;
(PID.TID 0000.0001) PTRACERS_diffKh = /* Laplacian Diffusivity */
(PID.TID 0000.0001)                 0.000000000000000E+00
(PID.TID 0000.0001)     ;
(PID.TID 0000.0001) PTRACERS_diffK4 = /* Biharmonic Diffusivity */
(PID.TID 0000.0001)                 0.000000000000000E+00
(PID.TID 0000.0001)     ;
(PID.TID 0000.0001) PTRACERS_diffKrNr = /* Vertical Diffusivity */
(PID.TID 0000.0001)    35 @  1.000000000000000E-05              /* K =  1: 35 */
(PID.TID 0000.0001)     ;
(PID.TID 0000.0001) PTRACERS_useGMRedi = /* apply GM-Redi */
(PID.TID 0000.0001)                   F
(PID.TID 0000.0001)     ;
(PID.TID 0000.0001) PTRACERS_useDWNSLP = /* apply DOWN-SLOPE Flow */
(PID.TID 0000.0001)                   F
(PID.TID 0000.0001)     ;
(PID.TID 0000.0001) PTRACERS_useKPP = /* apply KPP scheme */
(PID.TID 0000.0001)                   T
(PID.TID 0000.0001)     ;
(PID.TID 0000.0001) PTRACERS_ref = /* Reference vertical profile */
(PID.TID 0000.0001)    35 @  0.000000000000000E+00              /* K =  1: 35 */
(PID.TID 0000.0001)     ;
(PID.TID 0000.0001) PTRACERS_EvPrRn =/* tracer conc. in Evap. & Rain */
(PID.TID 0000.0001)                 1.234567000000000E+05
(PID.TID 0000.0001)     ;
(PID.TID 0000.0001)  -----------------------------------
(PID.TID 0000.0001)  tracer number :  184
(PID.TID 0000.0001) PTRACERS_names = /* Tracer short name */
(PID.TID 0000.0001)               'si13'
(PID.TID 0000.0001)     ;
(PID.TID 0000.0001) PTRACERS_long_names = /* Tracer long name */
(PID.TID 0000.0001)               ''
(PID.TID 0000.0001)     ;
(PID.TID 0000.0001) PTRACERS_ioLabel = /* tracer IO Label */
(PID.TID 0000.0001)               '1G'
(PID.TID 0000.0001)     ;
(PID.TID 0000.0001) PTRACERS_advScheme = /* Advection Scheme */
(PID.TID 0000.0001)                      33
(PID.TID 0000.0001)     ;
(PID.TID 0000.0001) PTRACERS_SOM_Advection = /* tracer uses SOM advection scheme */
(PID.TID 0000.0001)                   F
(PID.TID 0000.0001)     ;
(PID.TID 0000.0001) PTRACERS_ImplVertAdv = /* implicit vert. advection flag */
(PID.TID 0000.0001)                   F
(PID.TID 0000.0001)     ;
(PID.TID 0000.0001) PTRACERS_MultiDimAdv = /* tracer uses Multi-Dim advection */
(PID.TID 0000.0001)                   T
(PID.TID 0000.0001)     ;
(PID.TID 0000.0001) PTRACERS_AdamsBashGtr = /* apply AB on tracer tendency */
(PID.TID 0000.0001)                   F
(PID.TID 0000.0001)     ;
(PID.TID 0000.0001) PTRACERS_AdamsBash_Tr = /* apply AB on passive tracer */
(PID.TID 0000.0001)                   F
(PID.TID 0000.0001)     ;
(PID.TID 0000.0001) PTRACERS_diffKh = /* Laplacian Diffusivity */
(PID.TID 0000.0001)                 0.000000000000000E+00
(PID.TID 0000.0001)     ;
(PID.TID 0000.0001) PTRACERS_diffK4 = /* Biharmonic Diffusivity */
(PID.TID 0000.0001)                 0.000000000000000E+00
(PID.TID 0000.0001)     ;
(PID.TID 0000.0001) PTRACERS_diffKrNr = /* Vertical Diffusivity */
(PID.TID 0000.0001)    35 @  1.000000000000000E-05              /* K =  1: 35 */
(PID.TID 0000.0001)     ;
(PID.TID 0000.0001) PTRACERS_useGMRedi = /* apply GM-Redi */
(PID.TID 0000.0001)                   F
(PID.TID 0000.0001)     ;
(PID.TID 0000.0001) PTRACERS_useDWNSLP = /* apply DOWN-SLOPE Flow */
(PID.TID 0000.0001)                   F
(PID.TID 0000.0001)     ;
(PID.TID 0000.0001) PTRACERS_useKPP = /* apply KPP scheme */
(PID.TID 0000.0001)                   T
(PID.TID 0000.0001)     ;
(PID.TID 0000.0001) PTRACERS_ref = /* Reference vertical profile */
(PID.TID 0000.0001)    35 @  0.000000000000000E+00              /* K =  1: 35 */
(PID.TID 0000.0001)     ;
(PID.TID 0000.0001) PTRACERS_EvPrRn =/* tracer conc. in Evap. & Rain */
(PID.TID 0000.0001)                 1.234567000000000E+05
(PID.TID 0000.0001)     ;
(PID.TID 0000.0001)  -----------------------------------
(PID.TID 0000.0001)  tracer number :  185
(PID.TID 0000.0001) PTRACERS_names = /* Tracer short name */
(PID.TID 0000.0001)               'si14'
(PID.TID 0000.0001)     ;
(PID.TID 0000.0001) PTRACERS_long_names = /* Tracer long name */
(PID.TID 0000.0001)               ''
(PID.TID 0000.0001)     ;
(PID.TID 0000.0001) PTRACERS_ioLabel = /* tracer IO Label */
(PID.TID 0000.0001)               '1H'
(PID.TID 0000.0001)     ;
(PID.TID 0000.0001) PTRACERS_advScheme = /* Advection Scheme */
(PID.TID 0000.0001)                      33
(PID.TID 0000.0001)     ;
(PID.TID 0000.0001) PTRACERS_SOM_Advection = /* tracer uses SOM advection scheme */
(PID.TID 0000.0001)                   F
(PID.TID 0000.0001)     ;
(PID.TID 0000.0001) PTRACERS_ImplVertAdv = /* implicit vert. advection flag */
(PID.TID 0000.0001)                   F
(PID.TID 0000.0001)     ;
(PID.TID 0000.0001) PTRACERS_MultiDimAdv = /* tracer uses Multi-Dim advection */
(PID.TID 0000.0001)                   T
(PID.TID 0000.0001)     ;
(PID.TID 0000.0001) PTRACERS_AdamsBashGtr = /* apply AB on tracer tendency */
(PID.TID 0000.0001)                   F
(PID.TID 0000.0001)     ;
(PID.TID 0000.0001) PTRACERS_AdamsBash_Tr = /* apply AB on passive tracer */
(PID.TID 0000.0001)                   F
(PID.TID 0000.0001)     ;
(PID.TID 0000.0001) PTRACERS_diffKh = /* Laplacian Diffusivity */
(PID.TID 0000.0001)                 0.000000000000000E+00
(PID.TID 0000.0001)     ;
(PID.TID 0000.0001) PTRACERS_diffK4 = /* Biharmonic Diffusivity */
(PID.TID 0000.0001)                 0.000000000000000E+00
(PID.TID 0000.0001)     ;
(PID.TID 0000.0001) PTRACERS_diffKrNr = /* Vertical Diffusivity */
(PID.TID 0000.0001)    35 @  1.000000000000000E-05              /* K =  1: 35 */
(PID.TID 0000.0001)     ;
(PID.TID 0000.0001) PTRACERS_useGMRedi = /* apply GM-Redi */
(PID.TID 0000.0001)                   F
(PID.TID 0000.0001)     ;
(PID.TID 0000.0001) PTRACERS_useDWNSLP = /* apply DOWN-SLOPE Flow */
(PID.TID 0000.0001)                   F
(PID.TID 0000.0001)     ;
(PID.TID 0000.0001) PTRACERS_useKPP = /* apply KPP scheme */
(PID.TID 0000.0001)                   T
(PID.TID 0000.0001)     ;
(PID.TID 0000.0001) PTRACERS_ref = /* Reference vertical profile */
(PID.TID 0000.0001)    35 @  0.000000000000000E+00              /* K =  1: 35 */
(PID.TID 0000.0001)     ;
(PID.TID 0000.0001) PTRACERS_EvPrRn =/* tracer conc. in Evap. & Rain */
(PID.TID 0000.0001)                 1.234567000000000E+05
(PID.TID 0000.0001)     ;
(PID.TID 0000.0001)  -----------------------------------
(PID.TID 0000.0001)  tracer number :  186
(PID.TID 0000.0001) PTRACERS_names = /* Tracer short name */
(PID.TID 0000.0001)               'si15'
(PID.TID 0000.0001)     ;
(PID.TID 0000.0001) PTRACERS_long_names = /* Tracer long name */
(PID.TID 0000.0001)               ''
(PID.TID 0000.0001)     ;
(PID.TID 0000.0001) PTRACERS_ioLabel = /* tracer IO Label */
(PID.TID 0000.0001)               '1I'
(PID.TID 0000.0001)     ;
(PID.TID 0000.0001) PTRACERS_advScheme = /* Advection Scheme */
(PID.TID 0000.0001)                      33
(PID.TID 0000.0001)     ;
(PID.TID 0000.0001) PTRACERS_SOM_Advection = /* tracer uses SOM advection scheme */
(PID.TID 0000.0001)                   F
(PID.TID 0000.0001)     ;
(PID.TID 0000.0001) PTRACERS_ImplVertAdv = /* implicit vert. advection flag */
(PID.TID 0000.0001)                   F
(PID.TID 0000.0001)     ;
(PID.TID 0000.0001) PTRACERS_MultiDimAdv = /* tracer uses Multi-Dim advection */
(PID.TID 0000.0001)                   T
(PID.TID 0000.0001)     ;
(PID.TID 0000.0001) PTRACERS_AdamsBashGtr = /* apply AB on tracer tendency */
(PID.TID 0000.0001)                   F
(PID.TID 0000.0001)     ;
(PID.TID 0000.0001) PTRACERS_AdamsBash_Tr = /* apply AB on passive tracer */
(PID.TID 0000.0001)                   F
(PID.TID 0000.0001)     ;
(PID.TID 0000.0001) PTRACERS_diffKh = /* Laplacian Diffusivity */
(PID.TID 0000.0001)                 0.000000000000000E+00
(PID.TID 0000.0001)     ;
(PID.TID 0000.0001) PTRACERS_diffK4 = /* Biharmonic Diffusivity */
(PID.TID 0000.0001)                 0.000000000000000E+00
(PID.TID 0000.0001)     ;
(PID.TID 0000.0001) PTRACERS_diffKrNr = /* Vertical Diffusivity */
(PID.TID 0000.0001)    35 @  1.000000000000000E-05              /* K =  1: 35 */
(PID.TID 0000.0001)     ;
(PID.TID 0000.0001) PTRACERS_useGMRedi = /* apply GM-Redi */
(PID.TID 0000.0001)                   F
(PID.TID 0000.0001)     ;
(PID.TID 0000.0001) PTRACERS_useDWNSLP = /* apply DOWN-SLOPE Flow */
(PID.TID 0000.0001)                   F
(PID.TID 0000.0001)     ;
(PID.TID 0000.0001) PTRACERS_useKPP = /* apply KPP scheme */
(PID.TID 0000.0001)                   T
(PID.TID 0000.0001)     ;
(PID.TID 0000.0001) PTRACERS_ref = /* Reference vertical profile */
(PID.TID 0000.0001)    35 @  0.000000000000000E+00              /* K =  1: 35 */
(PID.TID 0000.0001)     ;
(PID.TID 0000.0001) PTRACERS_EvPrRn =/* tracer conc. in Evap. & Rain */
(PID.TID 0000.0001)                 1.234567000000000E+05
(PID.TID 0000.0001)     ;
(PID.TID 0000.0001)  -----------------------------------
(PID.TID 0000.0001)  tracer number :  187
(PID.TID 0000.0001) PTRACERS_names = /* Tracer short name */
(PID.TID 0000.0001)               'si16'
(PID.TID 0000.0001)     ;
(PID.TID 0000.0001) PTRACERS_long_names = /* Tracer long name */
(PID.TID 0000.0001)               ''
(PID.TID 0000.0001)     ;
(PID.TID 0000.0001) PTRACERS_ioLabel = /* tracer IO Label */
(PID.TID 0000.0001)               '1J'
(PID.TID 0000.0001)     ;
(PID.TID 0000.0001) PTRACERS_advScheme = /* Advection Scheme */
(PID.TID 0000.0001)                      33
(PID.TID 0000.0001)     ;
(PID.TID 0000.0001) PTRACERS_SOM_Advection = /* tracer uses SOM advection scheme */
(PID.TID 0000.0001)                   F
(PID.TID 0000.0001)     ;
(PID.TID 0000.0001) PTRACERS_ImplVertAdv = /* implicit vert. advection flag */
(PID.TID 0000.0001)                   F
(PID.TID 0000.0001)     ;
(PID.TID 0000.0001) PTRACERS_MultiDimAdv = /* tracer uses Multi-Dim advection */
(PID.TID 0000.0001)                   T
(PID.TID 0000.0001)     ;
(PID.TID 0000.0001) PTRACERS_AdamsBashGtr = /* apply AB on tracer tendency */
(PID.TID 0000.0001)                   F
(PID.TID 0000.0001)     ;
(PID.TID 0000.0001) PTRACERS_AdamsBash_Tr = /* apply AB on passive tracer */
(PID.TID 0000.0001)                   F
(PID.TID 0000.0001)     ;
(PID.TID 0000.0001) PTRACERS_diffKh = /* Laplacian Diffusivity */
(PID.TID 0000.0001)                 0.000000000000000E+00
(PID.TID 0000.0001)     ;
(PID.TID 0000.0001) PTRACERS_diffK4 = /* Biharmonic Diffusivity */
(PID.TID 0000.0001)                 0.000000000000000E+00
(PID.TID 0000.0001)     ;
(PID.TID 0000.0001) PTRACERS_diffKrNr = /* Vertical Diffusivity */
(PID.TID 0000.0001)    35 @  1.000000000000000E-05              /* K =  1: 35 */
(PID.TID 0000.0001)     ;
(PID.TID 0000.0001) PTRACERS_useGMRedi = /* apply GM-Redi */
(PID.TID 0000.0001)                   F
(PID.TID 0000.0001)     ;
(PID.TID 0000.0001) PTRACERS_useDWNSLP = /* apply DOWN-SLOPE Flow */
(PID.TID 0000.0001)                   F
(PID.TID 0000.0001)     ;
(PID.TID 0000.0001) PTRACERS_useKPP = /* apply KPP scheme */
(PID.TID 0000.0001)                   T
(PID.TID 0000.0001)     ;
(PID.TID 0000.0001) PTRACERS_ref = /* Reference vertical profile */
(PID.TID 0000.0001)    35 @  0.000000000000000E+00              /* K =  1: 35 */
(PID.TID 0000.0001)     ;
(PID.TID 0000.0001) PTRACERS_EvPrRn =/* tracer conc. in Evap. & Rain */
(PID.TID 0000.0001)                 1.234567000000000E+05
(PID.TID 0000.0001)     ;
(PID.TID 0000.0001)  -----------------------------------
(PID.TID 0000.0001)  tracer number :  188
(PID.TID 0000.0001) PTRACERS_names = /* Tracer short name */
(PID.TID 0000.0001)               'si17'
(PID.TID 0000.0001)     ;
(PID.TID 0000.0001) PTRACERS_long_names = /* Tracer long name */
(PID.TID 0000.0001)               ''
(PID.TID 0000.0001)     ;
(PID.TID 0000.0001) PTRACERS_ioLabel = /* tracer IO Label */
(PID.TID 0000.0001)               '1K'
(PID.TID 0000.0001)     ;
(PID.TID 0000.0001) PTRACERS_advScheme = /* Advection Scheme */
(PID.TID 0000.0001)                      33
(PID.TID 0000.0001)     ;
(PID.TID 0000.0001) PTRACERS_SOM_Advection = /* tracer uses SOM advection scheme */
(PID.TID 0000.0001)                   F
(PID.TID 0000.0001)     ;
(PID.TID 0000.0001) PTRACERS_ImplVertAdv = /* implicit vert. advection flag */
(PID.TID 0000.0001)                   F
(PID.TID 0000.0001)     ;
(PID.TID 0000.0001) PTRACERS_MultiDimAdv = /* tracer uses Multi-Dim advection */
(PID.TID 0000.0001)                   T
(PID.TID 0000.0001)     ;
(PID.TID 0000.0001) PTRACERS_AdamsBashGtr = /* apply AB on tracer tendency */
(PID.TID 0000.0001)                   F
(PID.TID 0000.0001)     ;
(PID.TID 0000.0001) PTRACERS_AdamsBash_Tr = /* apply AB on passive tracer */
(PID.TID 0000.0001)                   F
(PID.TID 0000.0001)     ;
(PID.TID 0000.0001) PTRACERS_diffKh = /* Laplacian Diffusivity */
(PID.TID 0000.0001)                 0.000000000000000E+00
(PID.TID 0000.0001)     ;
(PID.TID 0000.0001) PTRACERS_diffK4 = /* Biharmonic Diffusivity */
(PID.TID 0000.0001)                 0.000000000000000E+00
(PID.TID 0000.0001)     ;
(PID.TID 0000.0001) PTRACERS_diffKrNr = /* Vertical Diffusivity */
(PID.TID 0000.0001)    35 @  1.000000000000000E-05              /* K =  1: 35 */
(PID.TID 0000.0001)     ;
(PID.TID 0000.0001) PTRACERS_useGMRedi = /* apply GM-Redi */
(PID.TID 0000.0001)                   F
(PID.TID 0000.0001)     ;
(PID.TID 0000.0001) PTRACERS_useDWNSLP = /* apply DOWN-SLOPE Flow */
(PID.TID 0000.0001)                   F
(PID.TID 0000.0001)     ;
(PID.TID 0000.0001) PTRACERS_useKPP = /* apply KPP scheme */
(PID.TID 0000.0001)                   T
(PID.TID 0000.0001)     ;
(PID.TID 0000.0001) PTRACERS_ref = /* Reference vertical profile */
(PID.TID 0000.0001)    35 @  0.000000000000000E+00              /* K =  1: 35 */
(PID.TID 0000.0001)     ;
(PID.TID 0000.0001) PTRACERS_EvPrRn =/* tracer conc. in Evap. & Rain */
(PID.TID 0000.0001)                 1.234567000000000E+05
(PID.TID 0000.0001)     ;
(PID.TID 0000.0001)  -----------------------------------
(PID.TID 0000.0001)  tracer number :  189
(PID.TID 0000.0001) PTRACERS_names = /* Tracer short name */
(PID.TID 0000.0001)               'si18'
(PID.TID 0000.0001)     ;
(PID.TID 0000.0001) PTRACERS_long_names = /* Tracer long name */
(PID.TID 0000.0001)               ''
(PID.TID 0000.0001)     ;
(PID.TID 0000.0001) PTRACERS_ioLabel = /* tracer IO Label */
(PID.TID 0000.0001)               '1L'
(PID.TID 0000.0001)     ;
(PID.TID 0000.0001) PTRACERS_advScheme = /* Advection Scheme */
(PID.TID 0000.0001)                      33
(PID.TID 0000.0001)     ;
(PID.TID 0000.0001) PTRACERS_SOM_Advection = /* tracer uses SOM advection scheme */
(PID.TID 0000.0001)                   F
(PID.TID 0000.0001)     ;
(PID.TID 0000.0001) PTRACERS_ImplVertAdv = /* implicit vert. advection flag */
(PID.TID 0000.0001)                   F
(PID.TID 0000.0001)     ;
(PID.TID 0000.0001) PTRACERS_MultiDimAdv = /* tracer uses Multi-Dim advection */
(PID.TID 0000.0001)                   T
(PID.TID 0000.0001)     ;
(PID.TID 0000.0001) PTRACERS_AdamsBashGtr = /* apply AB on tracer tendency */
(PID.TID 0000.0001)                   F
(PID.TID 0000.0001)     ;
(PID.TID 0000.0001) PTRACERS_AdamsBash_Tr = /* apply AB on passive tracer */
(PID.TID 0000.0001)                   F
(PID.TID 0000.0001)     ;
(PID.TID 0000.0001) PTRACERS_diffKh = /* Laplacian Diffusivity */
(PID.TID 0000.0001)                 0.000000000000000E+00
(PID.TID 0000.0001)     ;
(PID.TID 0000.0001) PTRACERS_diffK4 = /* Biharmonic Diffusivity */
(PID.TID 0000.0001)                 0.000000000000000E+00
(PID.TID 0000.0001)     ;
(PID.TID 0000.0001) PTRACERS_diffKrNr = /* Vertical Diffusivity */
(PID.TID 0000.0001)    35 @  1.000000000000000E-05              /* K =  1: 35 */
(PID.TID 0000.0001)     ;
(PID.TID 0000.0001) PTRACERS_useGMRedi = /* apply GM-Redi */
(PID.TID 0000.0001)                   F
(PID.TID 0000.0001)     ;
(PID.TID 0000.0001) PTRACERS_useDWNSLP = /* apply DOWN-SLOPE Flow */
(PID.TID 0000.0001)                   F
(PID.TID 0000.0001)     ;
(PID.TID 0000.0001) PTRACERS_useKPP = /* apply KPP scheme */
(PID.TID 0000.0001)                   T
(PID.TID 0000.0001)     ;
(PID.TID 0000.0001) PTRACERS_ref = /* Reference vertical profile */
(PID.TID 0000.0001)    35 @  0.000000000000000E+00              /* K =  1: 35 */
(PID.TID 0000.0001)     ;
(PID.TID 0000.0001) PTRACERS_EvPrRn =/* tracer conc. in Evap. & Rain */
(PID.TID 0000.0001)                 1.234567000000000E+05
(PID.TID 0000.0001)     ;
(PID.TID 0000.0001)  -----------------------------------
(PID.TID 0000.0001)  tracer number :  190
(PID.TID 0000.0001) PTRACERS_names = /* Tracer short name */
(PID.TID 0000.0001)               'si19'
(PID.TID 0000.0001)     ;
(PID.TID 0000.0001) PTRACERS_long_names = /* Tracer long name */
(PID.TID 0000.0001)               ''
(PID.TID 0000.0001)     ;
(PID.TID 0000.0001) PTRACERS_ioLabel = /* tracer IO Label */
(PID.TID 0000.0001)               '1M'
(PID.TID 0000.0001)     ;
(PID.TID 0000.0001) PTRACERS_advScheme = /* Advection Scheme */
(PID.TID 0000.0001)                      33
(PID.TID 0000.0001)     ;
(PID.TID 0000.0001) PTRACERS_SOM_Advection = /* tracer uses SOM advection scheme */
(PID.TID 0000.0001)                   F
(PID.TID 0000.0001)     ;
(PID.TID 0000.0001) PTRACERS_ImplVertAdv = /* implicit vert. advection flag */
(PID.TID 0000.0001)                   F
(PID.TID 0000.0001)     ;
(PID.TID 0000.0001) PTRACERS_MultiDimAdv = /* tracer uses Multi-Dim advection */
(PID.TID 0000.0001)                   T
(PID.TID 0000.0001)     ;
(PID.TID 0000.0001) PTRACERS_AdamsBashGtr = /* apply AB on tracer tendency */
(PID.TID 0000.0001)                   F
(PID.TID 0000.0001)     ;
(PID.TID 0000.0001) PTRACERS_AdamsBash_Tr = /* apply AB on passive tracer */
(PID.TID 0000.0001)                   F
(PID.TID 0000.0001)     ;
(PID.TID 0000.0001) PTRACERS_diffKh = /* Laplacian Diffusivity */
(PID.TID 0000.0001)                 0.000000000000000E+00
(PID.TID 0000.0001)     ;
(PID.TID 0000.0001) PTRACERS_diffK4 = /* Biharmonic Diffusivity */
(PID.TID 0000.0001)                 0.000000000000000E+00
(PID.TID 0000.0001)     ;
(PID.TID 0000.0001) PTRACERS_diffKrNr = /* Vertical Diffusivity */
(PID.TID 0000.0001)    35 @  1.000000000000000E-05              /* K =  1: 35 */
(PID.TID 0000.0001)     ;
(PID.TID 0000.0001) PTRACERS_useGMRedi = /* apply GM-Redi */
(PID.TID 0000.0001)                   F
(PID.TID 0000.0001)     ;
(PID.TID 0000.0001) PTRACERS_useDWNSLP = /* apply DOWN-SLOPE Flow */
(PID.TID 0000.0001)                   F
(PID.TID 0000.0001)     ;
(PID.TID 0000.0001) PTRACERS_useKPP = /* apply KPP scheme */
(PID.TID 0000.0001)                   T
(PID.TID 0000.0001)     ;
(PID.TID 0000.0001) PTRACERS_ref = /* Reference vertical profile */
(PID.TID 0000.0001)    35 @  0.000000000000000E+00              /* K =  1: 35 */
(PID.TID 0000.0001)     ;
(PID.TID 0000.0001) PTRACERS_EvPrRn =/* tracer conc. in Evap. & Rain */
(PID.TID 0000.0001)                 1.234567000000000E+05
(PID.TID 0000.0001)     ;
(PID.TID 0000.0001)  -----------------------------------
(PID.TID 0000.0001)  tracer number :  191
(PID.TID 0000.0001) PTRACERS_names = /* Tracer short name */
(PID.TID 0000.0001)               'si20'
(PID.TID 0000.0001)     ;
(PID.TID 0000.0001) PTRACERS_long_names = /* Tracer long name */
(PID.TID 0000.0001)               ''
(PID.TID 0000.0001)     ;
(PID.TID 0000.0001) PTRACERS_ioLabel = /* tracer IO Label */
(PID.TID 0000.0001)               '1N'
(PID.TID 0000.0001)     ;
(PID.TID 0000.0001) PTRACERS_advScheme = /* Advection Scheme */
(PID.TID 0000.0001)                      33
(PID.TID 0000.0001)     ;
(PID.TID 0000.0001) PTRACERS_SOM_Advection = /* tracer uses SOM advection scheme */
(PID.TID 0000.0001)                   F
(PID.TID 0000.0001)     ;
(PID.TID 0000.0001) PTRACERS_ImplVertAdv = /* implicit vert. advection flag */
(PID.TID 0000.0001)                   F
(PID.TID 0000.0001)     ;
(PID.TID 0000.0001) PTRACERS_MultiDimAdv = /* tracer uses Multi-Dim advection */
(PID.TID 0000.0001)                   T
(PID.TID 0000.0001)     ;
(PID.TID 0000.0001) PTRACERS_AdamsBashGtr = /* apply AB on tracer tendency */
(PID.TID 0000.0001)                   F
(PID.TID 0000.0001)     ;
(PID.TID 0000.0001) PTRACERS_AdamsBash_Tr = /* apply AB on passive tracer */
(PID.TID 0000.0001)                   F
(PID.TID 0000.0001)     ;
(PID.TID 0000.0001) PTRACERS_diffKh = /* Laplacian Diffusivity */
(PID.TID 0000.0001)                 0.000000000000000E+00
(PID.TID 0000.0001)     ;
(PID.TID 0000.0001) PTRACERS_diffK4 = /* Biharmonic Diffusivity */
(PID.TID 0000.0001)                 0.000000000000000E+00
(PID.TID 0000.0001)     ;
(PID.TID 0000.0001) PTRACERS_diffKrNr = /* Vertical Diffusivity */
(PID.TID 0000.0001)    35 @  1.000000000000000E-05              /* K =  1: 35 */
(PID.TID 0000.0001)     ;
(PID.TID 0000.0001) PTRACERS_useGMRedi = /* apply GM-Redi */
(PID.TID 0000.0001)                   F
(PID.TID 0000.0001)     ;
(PID.TID 0000.0001) PTRACERS_useDWNSLP = /* apply DOWN-SLOPE Flow */
(PID.TID 0000.0001)                   F
(PID.TID 0000.0001)     ;
(PID.TID 0000.0001) PTRACERS_useKPP = /* apply KPP scheme */
(PID.TID 0000.0001)                   T
(PID.TID 0000.0001)     ;
(PID.TID 0000.0001) PTRACERS_ref = /* Reference vertical profile */
(PID.TID 0000.0001)    35 @  0.000000000000000E+00              /* K =  1: 35 */
(PID.TID 0000.0001)     ;
(PID.TID 0000.0001) PTRACERS_EvPrRn =/* tracer conc. in Evap. & Rain */
(PID.TID 0000.0001)                 1.234567000000000E+05
(PID.TID 0000.0001)     ;
(PID.TID 0000.0001)  -----------------------------------
(PID.TID 0000.0001)  tracer number :  192
(PID.TID 0000.0001) PTRACERS_names = /* Tracer short name */
(PID.TID 0000.0001)               'si21'
(PID.TID 0000.0001)     ;
(PID.TID 0000.0001) PTRACERS_long_names = /* Tracer long name */
(PID.TID 0000.0001)               ''
(PID.TID 0000.0001)     ;
(PID.TID 0000.0001) PTRACERS_ioLabel = /* tracer IO Label */
(PID.TID 0000.0001)               '1O'
(PID.TID 0000.0001)     ;
(PID.TID 0000.0001) PTRACERS_advScheme = /* Advection Scheme */
(PID.TID 0000.0001)                      33
(PID.TID 0000.0001)     ;
(PID.TID 0000.0001) PTRACERS_SOM_Advection = /* tracer uses SOM advection scheme */
(PID.TID 0000.0001)                   F
(PID.TID 0000.0001)     ;
(PID.TID 0000.0001) PTRACERS_ImplVertAdv = /* implicit vert. advection flag */
(PID.TID 0000.0001)                   F
(PID.TID 0000.0001)     ;
(PID.TID 0000.0001) PTRACERS_MultiDimAdv = /* tracer uses Multi-Dim advection */
(PID.TID 0000.0001)                   T
(PID.TID 0000.0001)     ;
(PID.TID 0000.0001) PTRACERS_AdamsBashGtr = /* apply AB on tracer tendency */
(PID.TID 0000.0001)                   F
(PID.TID 0000.0001)     ;
(PID.TID 0000.0001) PTRACERS_AdamsBash_Tr = /* apply AB on passive tracer */
(PID.TID 0000.0001)                   F
(PID.TID 0000.0001)     ;
(PID.TID 0000.0001) PTRACERS_diffKh = /* Laplacian Diffusivity */
(PID.TID 0000.0001)                 0.000000000000000E+00
(PID.TID 0000.0001)     ;
(PID.TID 0000.0001) PTRACERS_diffK4 = /* Biharmonic Diffusivity */
(PID.TID 0000.0001)                 0.000000000000000E+00
(PID.TID 0000.0001)     ;
(PID.TID 0000.0001) PTRACERS_diffKrNr = /* Vertical Diffusivity */
(PID.TID 0000.0001)    35 @  1.000000000000000E-05              /* K =  1: 35 */
(PID.TID 0000.0001)     ;
(PID.TID 0000.0001) PTRACERS_useGMRedi = /* apply GM-Redi */
(PID.TID 0000.0001)                   F
(PID.TID 0000.0001)     ;
(PID.TID 0000.0001) PTRACERS_useDWNSLP = /* apply DOWN-SLOPE Flow */
(PID.TID 0000.0001)                   F
(PID.TID 0000.0001)     ;
(PID.TID 0000.0001) PTRACERS_useKPP = /* apply KPP scheme */
(PID.TID 0000.0001)                   T
(PID.TID 0000.0001)     ;
(PID.TID 0000.0001) PTRACERS_ref = /* Reference vertical profile */
(PID.TID 0000.0001)    35 @  0.000000000000000E+00              /* K =  1: 35 */
(PID.TID 0000.0001)     ;
(PID.TID 0000.0001) PTRACERS_EvPrRn =/* tracer conc. in Evap. & Rain */
(PID.TID 0000.0001)                 1.234567000000000E+05
(PID.TID 0000.0001)     ;
(PID.TID 0000.0001)  -----------------------------------
(PID.TID 0000.0001)  tracer number :  193
(PID.TID 0000.0001) PTRACERS_names = /* Tracer short name */
(PID.TID 0000.0001)               'si22'
(PID.TID 0000.0001)     ;
(PID.TID 0000.0001) PTRACERS_long_names = /* Tracer long name */
(PID.TID 0000.0001)               ''
(PID.TID 0000.0001)     ;
(PID.TID 0000.0001) PTRACERS_ioLabel = /* tracer IO Label */
(PID.TID 0000.0001)               '1P'
(PID.TID 0000.0001)     ;
(PID.TID 0000.0001) PTRACERS_advScheme = /* Advection Scheme */
(PID.TID 0000.0001)                      33
(PID.TID 0000.0001)     ;
(PID.TID 0000.0001) PTRACERS_SOM_Advection = /* tracer uses SOM advection scheme */
(PID.TID 0000.0001)                   F
(PID.TID 0000.0001)     ;
(PID.TID 0000.0001) PTRACERS_ImplVertAdv = /* implicit vert. advection flag */
(PID.TID 0000.0001)                   F
(PID.TID 0000.0001)     ;
(PID.TID 0000.0001) PTRACERS_MultiDimAdv = /* tracer uses Multi-Dim advection */
(PID.TID 0000.0001)                   T
(PID.TID 0000.0001)     ;
(PID.TID 0000.0001) PTRACERS_AdamsBashGtr = /* apply AB on tracer tendency */
(PID.TID 0000.0001)                   F
(PID.TID 0000.0001)     ;
(PID.TID 0000.0001) PTRACERS_AdamsBash_Tr = /* apply AB on passive tracer */
(PID.TID 0000.0001)                   F
(PID.TID 0000.0001)     ;
(PID.TID 0000.0001) PTRACERS_diffKh = /* Laplacian Diffusivity */
(PID.TID 0000.0001)                 0.000000000000000E+00
(PID.TID 0000.0001)     ;
(PID.TID 0000.0001) PTRACERS_diffK4 = /* Biharmonic Diffusivity */
(PID.TID 0000.0001)                 0.000000000000000E+00
(PID.TID 0000.0001)     ;
(PID.TID 0000.0001) PTRACERS_diffKrNr = /* Vertical Diffusivity */
(PID.TID 0000.0001)    35 @  1.000000000000000E-05              /* K =  1: 35 */
(PID.TID 0000.0001)     ;
(PID.TID 0000.0001) PTRACERS_useGMRedi = /* apply GM-Redi */
(PID.TID 0000.0001)                   F
(PID.TID 0000.0001)     ;
(PID.TID 0000.0001) PTRACERS_useDWNSLP = /* apply DOWN-SLOPE Flow */
(PID.TID 0000.0001)                   F
(PID.TID 0000.0001)     ;
(PID.TID 0000.0001) PTRACERS_useKPP = /* apply KPP scheme */
(PID.TID 0000.0001)                   T
(PID.TID 0000.0001)     ;
(PID.TID 0000.0001) PTRACERS_ref = /* Reference vertical profile */
(PID.TID 0000.0001)    35 @  0.000000000000000E+00              /* K =  1: 35 */
(PID.TID 0000.0001)     ;
(PID.TID 0000.0001) PTRACERS_EvPrRn =/* tracer conc. in Evap. & Rain */
(PID.TID 0000.0001)                 1.234567000000000E+05
(PID.TID 0000.0001)     ;
(PID.TID 0000.0001)  -----------------------------------
(PID.TID 0000.0001)  tracer number :  194
(PID.TID 0000.0001) PTRACERS_names = /* Tracer short name */
(PID.TID 0000.0001)               'si23'
(PID.TID 0000.0001)     ;
(PID.TID 0000.0001) PTRACERS_long_names = /* Tracer long name */
(PID.TID 0000.0001)               ''
(PID.TID 0000.0001)     ;
(PID.TID 0000.0001) PTRACERS_ioLabel = /* tracer IO Label */
(PID.TID 0000.0001)               '1Q'
(PID.TID 0000.0001)     ;
(PID.TID 0000.0001) PTRACERS_advScheme = /* Advection Scheme */
(PID.TID 0000.0001)                      33
(PID.TID 0000.0001)     ;
(PID.TID 0000.0001) PTRACERS_SOM_Advection = /* tracer uses SOM advection scheme */
(PID.TID 0000.0001)                   F
(PID.TID 0000.0001)     ;
(PID.TID 0000.0001) PTRACERS_ImplVertAdv = /* implicit vert. advection flag */
(PID.TID 0000.0001)                   F
(PID.TID 0000.0001)     ;
(PID.TID 0000.0001) PTRACERS_MultiDimAdv = /* tracer uses Multi-Dim advection */
(PID.TID 0000.0001)                   T
(PID.TID 0000.0001)     ;
(PID.TID 0000.0001) PTRACERS_AdamsBashGtr = /* apply AB on tracer tendency */
(PID.TID 0000.0001)                   F
(PID.TID 0000.0001)     ;
(PID.TID 0000.0001) PTRACERS_AdamsBash_Tr = /* apply AB on passive tracer */
(PID.TID 0000.0001)                   F
(PID.TID 0000.0001)     ;
(PID.TID 0000.0001) PTRACERS_diffKh = /* Laplacian Diffusivity */
(PID.TID 0000.0001)                 0.000000000000000E+00
(PID.TID 0000.0001)     ;
(PID.TID 0000.0001) PTRACERS_diffK4 = /* Biharmonic Diffusivity */
(PID.TID 0000.0001)                 0.000000000000000E+00
(PID.TID 0000.0001)     ;
(PID.TID 0000.0001) PTRACERS_diffKrNr = /* Vertical Diffusivity */
(PID.TID 0000.0001)    35 @  1.000000000000000E-05              /* K =  1: 35 */
(PID.TID 0000.0001)     ;
(PID.TID 0000.0001) PTRACERS_useGMRedi = /* apply GM-Redi */
(PID.TID 0000.0001)                   F
(PID.TID 0000.0001)     ;
(PID.TID 0000.0001) PTRACERS_useDWNSLP = /* apply DOWN-SLOPE Flow */
(PID.TID 0000.0001)                   F
(PID.TID 0000.0001)     ;
(PID.TID 0000.0001) PTRACERS_useKPP = /* apply KPP scheme */
(PID.TID 0000.0001)                   T
(PID.TID 0000.0001)     ;
(PID.TID 0000.0001) PTRACERS_ref = /* Reference vertical profile */
(PID.TID 0000.0001)    35 @  0.000000000000000E+00              /* K =  1: 35 */
(PID.TID 0000.0001)     ;
(PID.TID 0000.0001) PTRACERS_EvPrRn =/* tracer conc. in Evap. & Rain */
(PID.TID 0000.0001)                 1.234567000000000E+05
(PID.TID 0000.0001)     ;
(PID.TID 0000.0001)  -----------------------------------
(PID.TID 0000.0001)  tracer number :  195
(PID.TID 0000.0001) PTRACERS_names = /* Tracer short name */
(PID.TID 0000.0001)               'si24'
(PID.TID 0000.0001)     ;
(PID.TID 0000.0001) PTRACERS_long_names = /* Tracer long name */
(PID.TID 0000.0001)               ''
(PID.TID 0000.0001)     ;
(PID.TID 0000.0001) PTRACERS_ioLabel = /* tracer IO Label */
(PID.TID 0000.0001)               '1R'
(PID.TID 0000.0001)     ;
(PID.TID 0000.0001) PTRACERS_advScheme = /* Advection Scheme */
(PID.TID 0000.0001)                      33
(PID.TID 0000.0001)     ;
(PID.TID 0000.0001) PTRACERS_SOM_Advection = /* tracer uses SOM advection scheme */
(PID.TID 0000.0001)                   F
(PID.TID 0000.0001)     ;
(PID.TID 0000.0001) PTRACERS_ImplVertAdv = /* implicit vert. advection flag */
(PID.TID 0000.0001)                   F
(PID.TID 0000.0001)     ;
(PID.TID 0000.0001) PTRACERS_MultiDimAdv = /* tracer uses Multi-Dim advection */
(PID.TID 0000.0001)                   T
(PID.TID 0000.0001)     ;
(PID.TID 0000.0001) PTRACERS_AdamsBashGtr = /* apply AB on tracer tendency */
(PID.TID 0000.0001)                   F
(PID.TID 0000.0001)     ;
(PID.TID 0000.0001) PTRACERS_AdamsBash_Tr = /* apply AB on passive tracer */
(PID.TID 0000.0001)                   F
(PID.TID 0000.0001)     ;
(PID.TID 0000.0001) PTRACERS_diffKh = /* Laplacian Diffusivity */
(PID.TID 0000.0001)                 0.000000000000000E+00
(PID.TID 0000.0001)     ;
(PID.TID 0000.0001) PTRACERS_diffK4 = /* Biharmonic Diffusivity */
(PID.TID 0000.0001)                 0.000000000000000E+00
(PID.TID 0000.0001)     ;
(PID.TID 0000.0001) PTRACERS_diffKrNr = /* Vertical Diffusivity */
(PID.TID 0000.0001)    35 @  1.000000000000000E-05              /* K =  1: 35 */
(PID.TID 0000.0001)     ;
(PID.TID 0000.0001) PTRACERS_useGMRedi = /* apply GM-Redi */
(PID.TID 0000.0001)                   F
(PID.TID 0000.0001)     ;
(PID.TID 0000.0001) PTRACERS_useDWNSLP = /* apply DOWN-SLOPE Flow */
(PID.TID 0000.0001)                   F
(PID.TID 0000.0001)     ;
(PID.TID 0000.0001) PTRACERS_useKPP = /* apply KPP scheme */
(PID.TID 0000.0001)                   T
(PID.TID 0000.0001)     ;
(PID.TID 0000.0001) PTRACERS_ref = /* Reference vertical profile */
(PID.TID 0000.0001)    35 @  0.000000000000000E+00              /* K =  1: 35 */
(PID.TID 0000.0001)     ;
(PID.TID 0000.0001) PTRACERS_EvPrRn =/* tracer conc. in Evap. & Rain */
(PID.TID 0000.0001)                 1.234567000000000E+05
(PID.TID 0000.0001)     ;
(PID.TID 0000.0001)  -----------------------------------
(PID.TID 0000.0001)  tracer number :  196
(PID.TID 0000.0001) PTRACERS_names = /* Tracer short name */
(PID.TID 0000.0001)               'si25'
(PID.TID 0000.0001)     ;
(PID.TID 0000.0001) PTRACERS_long_names = /* Tracer long name */
(PID.TID 0000.0001)               ''
(PID.TID 0000.0001)     ;
(PID.TID 0000.0001) PTRACERS_ioLabel = /* tracer IO Label */
(PID.TID 0000.0001)               '1S'
(PID.TID 0000.0001)     ;
(PID.TID 0000.0001) PTRACERS_advScheme = /* Advection Scheme */
(PID.TID 0000.0001)                      33
(PID.TID 0000.0001)     ;
(PID.TID 0000.0001) PTRACERS_SOM_Advection = /* tracer uses SOM advection scheme */
(PID.TID 0000.0001)                   F
(PID.TID 0000.0001)     ;
(PID.TID 0000.0001) PTRACERS_ImplVertAdv = /* implicit vert. advection flag */
(PID.TID 0000.0001)                   F
(PID.TID 0000.0001)     ;
(PID.TID 0000.0001) PTRACERS_MultiDimAdv = /* tracer uses Multi-Dim advection */
(PID.TID 0000.0001)                   T
(PID.TID 0000.0001)     ;
(PID.TID 0000.0001) PTRACERS_AdamsBashGtr = /* apply AB on tracer tendency */
(PID.TID 0000.0001)                   F
(PID.TID 0000.0001)     ;
(PID.TID 0000.0001) PTRACERS_AdamsBash_Tr = /* apply AB on passive tracer */
(PID.TID 0000.0001)                   F
(PID.TID 0000.0001)     ;
(PID.TID 0000.0001) PTRACERS_diffKh = /* Laplacian Diffusivity */
(PID.TID 0000.0001)                 0.000000000000000E+00
(PID.TID 0000.0001)     ;
(PID.TID 0000.0001) PTRACERS_diffK4 = /* Biharmonic Diffusivity */
(PID.TID 0000.0001)                 0.000000000000000E+00
(PID.TID 0000.0001)     ;
(PID.TID 0000.0001) PTRACERS_diffKrNr = /* Vertical Diffusivity */
(PID.TID 0000.0001)    35 @  1.000000000000000E-05              /* K =  1: 35 */
(PID.TID 0000.0001)     ;
(PID.TID 0000.0001) PTRACERS_useGMRedi = /* apply GM-Redi */
(PID.TID 0000.0001)                   F
(PID.TID 0000.0001)     ;
(PID.TID 0000.0001) PTRACERS_useDWNSLP = /* apply DOWN-SLOPE Flow */
(PID.TID 0000.0001)                   F
(PID.TID 0000.0001)     ;
(PID.TID 0000.0001) PTRACERS_useKPP = /* apply KPP scheme */
(PID.TID 0000.0001)                   T
(PID.TID 0000.0001)     ;
(PID.TID 0000.0001) PTRACERS_ref = /* Reference vertical profile */
(PID.TID 0000.0001)    35 @  0.000000000000000E+00              /* K =  1: 35 */
(PID.TID 0000.0001)     ;
(PID.TID 0000.0001) PTRACERS_EvPrRn =/* tracer conc. in Evap. & Rain */
(PID.TID 0000.0001)                 1.234567000000000E+05
(PID.TID 0000.0001)     ;
(PID.TID 0000.0001)  -----------------------------------
(PID.TID 0000.0001)  tracer number :  197
(PID.TID 0000.0001) PTRACERS_names = /* Tracer short name */
(PID.TID 0000.0001)               'si26'
(PID.TID 0000.0001)     ;
(PID.TID 0000.0001) PTRACERS_long_names = /* Tracer long name */
(PID.TID 0000.0001)               ''
(PID.TID 0000.0001)     ;
(PID.TID 0000.0001) PTRACERS_ioLabel = /* tracer IO Label */
(PID.TID 0000.0001)               '1T'
(PID.TID 0000.0001)     ;
(PID.TID 0000.0001) PTRACERS_advScheme = /* Advection Scheme */
(PID.TID 0000.0001)                      33
(PID.TID 0000.0001)     ;
(PID.TID 0000.0001) PTRACERS_SOM_Advection = /* tracer uses SOM advection scheme */
(PID.TID 0000.0001)                   F
(PID.TID 0000.0001)     ;
(PID.TID 0000.0001) PTRACERS_ImplVertAdv = /* implicit vert. advection flag */
(PID.TID 0000.0001)                   F
(PID.TID 0000.0001)     ;
(PID.TID 0000.0001) PTRACERS_MultiDimAdv = /* tracer uses Multi-Dim advection */
(PID.TID 0000.0001)                   T
(PID.TID 0000.0001)     ;
(PID.TID 0000.0001) PTRACERS_AdamsBashGtr = /* apply AB on tracer tendency */
(PID.TID 0000.0001)                   F
(PID.TID 0000.0001)     ;
(PID.TID 0000.0001) PTRACERS_AdamsBash_Tr = /* apply AB on passive tracer */
(PID.TID 0000.0001)                   F
(PID.TID 0000.0001)     ;
(PID.TID 0000.0001) PTRACERS_diffKh = /* Laplacian Diffusivity */
(PID.TID 0000.0001)                 0.000000000000000E+00
(PID.TID 0000.0001)     ;
(PID.TID 0000.0001) PTRACERS_diffK4 = /* Biharmonic Diffusivity */
(PID.TID 0000.0001)                 0.000000000000000E+00
(PID.TID 0000.0001)     ;
(PID.TID 0000.0001) PTRACERS_diffKrNr = /* Vertical Diffusivity */
(PID.TID 0000.0001)    35 @  1.000000000000000E-05              /* K =  1: 35 */
(PID.TID 0000.0001)     ;
(PID.TID 0000.0001) PTRACERS_useGMRedi = /* apply GM-Redi */
(PID.TID 0000.0001)                   F
(PID.TID 0000.0001)     ;
(PID.TID 0000.0001) PTRACERS_useDWNSLP = /* apply DOWN-SLOPE Flow */
(PID.TID 0000.0001)                   F
(PID.TID 0000.0001)     ;
(PID.TID 0000.0001) PTRACERS_useKPP = /* apply KPP scheme */
(PID.TID 0000.0001)                   T
(PID.TID 0000.0001)     ;
(PID.TID 0000.0001) PTRACERS_ref = /* Reference vertical profile */
(PID.TID 0000.0001)    35 @  0.000000000000000E+00              /* K =  1: 35 */
(PID.TID 0000.0001)     ;
(PID.TID 0000.0001) PTRACERS_EvPrRn =/* tracer conc. in Evap. & Rain */
(PID.TID 0000.0001)                 1.234567000000000E+05
(PID.TID 0000.0001)     ;
(PID.TID 0000.0001)  -----------------------------------
(PID.TID 0000.0001)  tracer number :  198
(PID.TID 0000.0001) PTRACERS_names = /* Tracer short name */
(PID.TID 0000.0001)               'si27'
(PID.TID 0000.0001)     ;
(PID.TID 0000.0001) PTRACERS_long_names = /* Tracer long name */
(PID.TID 0000.0001)               ''
(PID.TID 0000.0001)     ;
(PID.TID 0000.0001) PTRACERS_ioLabel = /* tracer IO Label */
(PID.TID 0000.0001)               '1U'
(PID.TID 0000.0001)     ;
(PID.TID 0000.0001) PTRACERS_advScheme = /* Advection Scheme */
(PID.TID 0000.0001)                      33
(PID.TID 0000.0001)     ;
(PID.TID 0000.0001) PTRACERS_SOM_Advection = /* tracer uses SOM advection scheme */
(PID.TID 0000.0001)                   F
(PID.TID 0000.0001)     ;
(PID.TID 0000.0001) PTRACERS_ImplVertAdv = /* implicit vert. advection flag */
(PID.TID 0000.0001)                   F
(PID.TID 0000.0001)     ;
(PID.TID 0000.0001) PTRACERS_MultiDimAdv = /* tracer uses Multi-Dim advection */
(PID.TID 0000.0001)                   T
(PID.TID 0000.0001)     ;
(PID.TID 0000.0001) PTRACERS_AdamsBashGtr = /* apply AB on tracer tendency */
(PID.TID 0000.0001)                   F
(PID.TID 0000.0001)     ;
(PID.TID 0000.0001) PTRACERS_AdamsBash_Tr = /* apply AB on passive tracer */
(PID.TID 0000.0001)                   F
(PID.TID 0000.0001)     ;
(PID.TID 0000.0001) PTRACERS_diffKh = /* Laplacian Diffusivity */
(PID.TID 0000.0001)                 0.000000000000000E+00
(PID.TID 0000.0001)     ;
(PID.TID 0000.0001) PTRACERS_diffK4 = /* Biharmonic Diffusivity */
(PID.TID 0000.0001)                 0.000000000000000E+00
(PID.TID 0000.0001)     ;
(PID.TID 0000.0001) PTRACERS_diffKrNr = /* Vertical Diffusivity */
(PID.TID 0000.0001)    35 @  1.000000000000000E-05              /* K =  1: 35 */
(PID.TID 0000.0001)     ;
(PID.TID 0000.0001) PTRACERS_useGMRedi = /* apply GM-Redi */
(PID.TID 0000.0001)                   F
(PID.TID 0000.0001)     ;
(PID.TID 0000.0001) PTRACERS_useDWNSLP = /* apply DOWN-SLOPE Flow */
(PID.TID 0000.0001)                   F
(PID.TID 0000.0001)     ;
(PID.TID 0000.0001) PTRACERS_useKPP = /* apply KPP scheme */
(PID.TID 0000.0001)                   T
(PID.TID 0000.0001)     ;
(PID.TID 0000.0001) PTRACERS_ref = /* Reference vertical profile */
(PID.TID 0000.0001)    35 @  0.000000000000000E+00              /* K =  1: 35 */
(PID.TID 0000.0001)     ;
(PID.TID 0000.0001) PTRACERS_EvPrRn =/* tracer conc. in Evap. & Rain */
(PID.TID 0000.0001)                 1.234567000000000E+05
(PID.TID 0000.0001)     ;
(PID.TID 0000.0001)  -----------------------------------
(PID.TID 0000.0001)  tracer number :  199
(PID.TID 0000.0001) PTRACERS_names = /* Tracer short name */
(PID.TID 0000.0001)               'si28'
(PID.TID 0000.0001)     ;
(PID.TID 0000.0001) PTRACERS_long_names = /* Tracer long name */
(PID.TID 0000.0001)               ''
(PID.TID 0000.0001)     ;
(PID.TID 0000.0001) PTRACERS_ioLabel = /* tracer IO Label */
(PID.TID 0000.0001)               '1V'
(PID.TID 0000.0001)     ;
(PID.TID 0000.0001) PTRACERS_advScheme = /* Advection Scheme */
(PID.TID 0000.0001)                      33
(PID.TID 0000.0001)     ;
(PID.TID 0000.0001) PTRACERS_SOM_Advection = /* tracer uses SOM advection scheme */
(PID.TID 0000.0001)                   F
(PID.TID 0000.0001)     ;
(PID.TID 0000.0001) PTRACERS_ImplVertAdv = /* implicit vert. advection flag */
(PID.TID 0000.0001)                   F
(PID.TID 0000.0001)     ;
(PID.TID 0000.0001) PTRACERS_MultiDimAdv = /* tracer uses Multi-Dim advection */
(PID.TID 0000.0001)                   T
(PID.TID 0000.0001)     ;
(PID.TID 0000.0001) PTRACERS_AdamsBashGtr = /* apply AB on tracer tendency */
(PID.TID 0000.0001)                   F
(PID.TID 0000.0001)     ;
(PID.TID 0000.0001) PTRACERS_AdamsBash_Tr = /* apply AB on passive tracer */
(PID.TID 0000.0001)                   F
(PID.TID 0000.0001)     ;
(PID.TID 0000.0001) PTRACERS_diffKh = /* Laplacian Diffusivity */
(PID.TID 0000.0001)                 0.000000000000000E+00
(PID.TID 0000.0001)     ;
(PID.TID 0000.0001) PTRACERS_diffK4 = /* Biharmonic Diffusivity */
(PID.TID 0000.0001)                 0.000000000000000E+00
(PID.TID 0000.0001)     ;
(PID.TID 0000.0001) PTRACERS_diffKrNr = /* Vertical Diffusivity */
(PID.TID 0000.0001)    35 @  1.000000000000000E-05              /* K =  1: 35 */
(PID.TID 0000.0001)     ;
(PID.TID 0000.0001) PTRACERS_useGMRedi = /* apply GM-Redi */
(PID.TID 0000.0001)                   F
(PID.TID 0000.0001)     ;
(PID.TID 0000.0001) PTRACERS_useDWNSLP = /* apply DOWN-SLOPE Flow */
(PID.TID 0000.0001)                   F
(PID.TID 0000.0001)     ;
(PID.TID 0000.0001) PTRACERS_useKPP = /* apply KPP scheme */
(PID.TID 0000.0001)                   T
(PID.TID 0000.0001)     ;
(PID.TID 0000.0001) PTRACERS_ref = /* Reference vertical profile */
(PID.TID 0000.0001)    35 @  0.000000000000000E+00              /* K =  1: 35 */
(PID.TID 0000.0001)     ;
(PID.TID 0000.0001) PTRACERS_EvPrRn =/* tracer conc. in Evap. & Rain */
(PID.TID 0000.0001)                 1.234567000000000E+05
(PID.TID 0000.0001)     ;
(PID.TID 0000.0001)  -----------------------------------
(PID.TID 0000.0001)  tracer number :  200
(PID.TID 0000.0001) PTRACERS_names = /* Tracer short name */
(PID.TID 0000.0001)               'si29'
(PID.TID 0000.0001)     ;
(PID.TID 0000.0001) PTRACERS_long_names = /* Tracer long name */
(PID.TID 0000.0001)               ''
(PID.TID 0000.0001)     ;
(PID.TID 0000.0001) PTRACERS_ioLabel = /* tracer IO Label */
(PID.TID 0000.0001)               '1W'
(PID.TID 0000.0001)     ;
(PID.TID 0000.0001) PTRACERS_advScheme = /* Advection Scheme */
(PID.TID 0000.0001)                      33
(PID.TID 0000.0001)     ;
(PID.TID 0000.0001) PTRACERS_SOM_Advection = /* tracer uses SOM advection scheme */
(PID.TID 0000.0001)                   F
(PID.TID 0000.0001)     ;
(PID.TID 0000.0001) PTRACERS_ImplVertAdv = /* implicit vert. advection flag */
(PID.TID 0000.0001)                   F
(PID.TID 0000.0001)     ;
(PID.TID 0000.0001) PTRACERS_MultiDimAdv = /* tracer uses Multi-Dim advection */
(PID.TID 0000.0001)                   T
(PID.TID 0000.0001)     ;
(PID.TID 0000.0001) PTRACERS_AdamsBashGtr = /* apply AB on tracer tendency */
(PID.TID 0000.0001)                   F
(PID.TID 0000.0001)     ;
(PID.TID 0000.0001) PTRACERS_AdamsBash_Tr = /* apply AB on passive tracer */
(PID.TID 0000.0001)                   F
(PID.TID 0000.0001)     ;
(PID.TID 0000.0001) PTRACERS_diffKh = /* Laplacian Diffusivity */
(PID.TID 0000.0001)                 0.000000000000000E+00
(PID.TID 0000.0001)     ;
(PID.TID 0000.0001) PTRACERS_diffK4 = /* Biharmonic Diffusivity */
(PID.TID 0000.0001)                 0.000000000000000E+00
(PID.TID 0000.0001)     ;
(PID.TID 0000.0001) PTRACERS_diffKrNr = /* Vertical Diffusivity */
(PID.TID 0000.0001)    35 @  1.000000000000000E-05              /* K =  1: 35 */
(PID.TID 0000.0001)     ;
(PID.TID 0000.0001) PTRACERS_useGMRedi = /* apply GM-Redi */
(PID.TID 0000.0001)                   F
(PID.TID 0000.0001)     ;
(PID.TID 0000.0001) PTRACERS_useDWNSLP = /* apply DOWN-SLOPE Flow */
(PID.TID 0000.0001)                   F
(PID.TID 0000.0001)     ;
(PID.TID 0000.0001) PTRACERS_useKPP = /* apply KPP scheme */
(PID.TID 0000.0001)                   T
(PID.TID 0000.0001)     ;
(PID.TID 0000.0001) PTRACERS_ref = /* Reference vertical profile */
(PID.TID 0000.0001)    35 @  0.000000000000000E+00              /* K =  1: 35 */
(PID.TID 0000.0001)     ;
(PID.TID 0000.0001) PTRACERS_EvPrRn =/* tracer conc. in Evap. & Rain */
(PID.TID 0000.0001)                 1.234567000000000E+05
(PID.TID 0000.0001)     ;
(PID.TID 0000.0001)  -----------------------------------
(PID.TID 0000.0001)  tracer number :  201
(PID.TID 0000.0001) PTRACERS_names = /* Tracer short name */
(PID.TID 0000.0001)               'si30'
(PID.TID 0000.0001)     ;
(PID.TID 0000.0001) PTRACERS_long_names = /* Tracer long name */
(PID.TID 0000.0001)               ''
(PID.TID 0000.0001)     ;
(PID.TID 0000.0001) PTRACERS_ioLabel = /* tracer IO Label */
(PID.TID 0000.0001)               '1X'
(PID.TID 0000.0001)     ;
(PID.TID 0000.0001) PTRACERS_advScheme = /* Advection Scheme */
(PID.TID 0000.0001)                      33
(PID.TID 0000.0001)     ;
(PID.TID 0000.0001) PTRACERS_SOM_Advection = /* tracer uses SOM advection scheme */
(PID.TID 0000.0001)                   F
(PID.TID 0000.0001)     ;
(PID.TID 0000.0001) PTRACERS_ImplVertAdv = /* implicit vert. advection flag */
(PID.TID 0000.0001)                   F
(PID.TID 0000.0001)     ;
(PID.TID 0000.0001) PTRACERS_MultiDimAdv = /* tracer uses Multi-Dim advection */
(PID.TID 0000.0001)                   T
(PID.TID 0000.0001)     ;
(PID.TID 0000.0001) PTRACERS_AdamsBashGtr = /* apply AB on tracer tendency */
(PID.TID 0000.0001)                   F
(PID.TID 0000.0001)     ;
(PID.TID 0000.0001) PTRACERS_AdamsBash_Tr = /* apply AB on passive tracer */
(PID.TID 0000.0001)                   F
(PID.TID 0000.0001)     ;
(PID.TID 0000.0001) PTRACERS_diffKh = /* Laplacian Diffusivity */
(PID.TID 0000.0001)                 0.000000000000000E+00
(PID.TID 0000.0001)     ;
(PID.TID 0000.0001) PTRACERS_diffK4 = /* Biharmonic Diffusivity */
(PID.TID 0000.0001)                 0.000000000000000E+00
(PID.TID 0000.0001)     ;
(PID.TID 0000.0001) PTRACERS_diffKrNr = /* Vertical Diffusivity */
(PID.TID 0000.0001)    35 @  1.000000000000000E-05              /* K =  1: 35 */
(PID.TID 0000.0001)     ;
(PID.TID 0000.0001) PTRACERS_useGMRedi = /* apply GM-Redi */
(PID.TID 0000.0001)                   F
(PID.TID 0000.0001)     ;
(PID.TID 0000.0001) PTRACERS_useDWNSLP = /* apply DOWN-SLOPE Flow */
(PID.TID 0000.0001)                   F
(PID.TID 0000.0001)     ;
(PID.TID 0000.0001) PTRACERS_useKPP = /* apply KPP scheme */
(PID.TID 0000.0001)                   T
(PID.TID 0000.0001)     ;
(PID.TID 0000.0001) PTRACERS_ref = /* Reference vertical profile */
(PID.TID 0000.0001)    35 @  0.000000000000000E+00              /* K =  1: 35 */
(PID.TID 0000.0001)     ;
(PID.TID 0000.0001) PTRACERS_EvPrRn =/* tracer conc. in Evap. & Rain */
(PID.TID 0000.0001)                 1.234567000000000E+05
(PID.TID 0000.0001)     ;
(PID.TID 0000.0001)  -----------------------------------
(PID.TID 0000.0001)  tracer number :  202
(PID.TID 0000.0001) PTRACERS_names = /* Tracer short name */
(PID.TID 0000.0001)               'si31'
(PID.TID 0000.0001)     ;
(PID.TID 0000.0001) PTRACERS_long_names = /* Tracer long name */
(PID.TID 0000.0001)               ''
(PID.TID 0000.0001)     ;
(PID.TID 0000.0001) PTRACERS_ioLabel = /* tracer IO Label */
(PID.TID 0000.0001)               '1Y'
(PID.TID 0000.0001)     ;
(PID.TID 0000.0001) PTRACERS_advScheme = /* Advection Scheme */
(PID.TID 0000.0001)                      33
(PID.TID 0000.0001)     ;
(PID.TID 0000.0001) PTRACERS_SOM_Advection = /* tracer uses SOM advection scheme */
(PID.TID 0000.0001)                   F
(PID.TID 0000.0001)     ;
(PID.TID 0000.0001) PTRACERS_ImplVertAdv = /* implicit vert. advection flag */
(PID.TID 0000.0001)                   F
(PID.TID 0000.0001)     ;
(PID.TID 0000.0001) PTRACERS_MultiDimAdv = /* tracer uses Multi-Dim advection */
(PID.TID 0000.0001)                   T
(PID.TID 0000.0001)     ;
(PID.TID 0000.0001) PTRACERS_AdamsBashGtr = /* apply AB on tracer tendency */
(PID.TID 0000.0001)                   F
(PID.TID 0000.0001)     ;
(PID.TID 0000.0001) PTRACERS_AdamsBash_Tr = /* apply AB on passive tracer */
(PID.TID 0000.0001)                   F
(PID.TID 0000.0001)     ;
(PID.TID 0000.0001) PTRACERS_diffKh = /* Laplacian Diffusivity */
(PID.TID 0000.0001)                 0.000000000000000E+00
(PID.TID 0000.0001)     ;
(PID.TID 0000.0001) PTRACERS_diffK4 = /* Biharmonic Diffusivity */
(PID.TID 0000.0001)                 0.000000000000000E+00
(PID.TID 0000.0001)     ;
(PID.TID 0000.0001) PTRACERS_diffKrNr = /* Vertical Diffusivity */
(PID.TID 0000.0001)    35 @  1.000000000000000E-05              /* K =  1: 35 */
(PID.TID 0000.0001)     ;
(PID.TID 0000.0001) PTRACERS_useGMRedi = /* apply GM-Redi */
(PID.TID 0000.0001)                   F
(PID.TID 0000.0001)     ;
(PID.TID 0000.0001) PTRACERS_useDWNSLP = /* apply DOWN-SLOPE Flow */
(PID.TID 0000.0001)                   F
(PID.TID 0000.0001)     ;
(PID.TID 0000.0001) PTRACERS_useKPP = /* apply KPP scheme */
(PID.TID 0000.0001)                   T
(PID.TID 0000.0001)     ;
(PID.TID 0000.0001) PTRACERS_ref = /* Reference vertical profile */
(PID.TID 0000.0001)    35 @  0.000000000000000E+00              /* K =  1: 35 */
(PID.TID 0000.0001)     ;
(PID.TID 0000.0001) PTRACERS_EvPrRn =/* tracer conc. in Evap. & Rain */
(PID.TID 0000.0001)                 1.234567000000000E+05
(PID.TID 0000.0001)     ;
(PID.TID 0000.0001)  -----------------------------------
(PID.TID 0000.0001)  tracer number :  203
(PID.TID 0000.0001) PTRACERS_names = /* Tracer short name */
(PID.TID 0000.0001)               'si32'
(PID.TID 0000.0001)     ;
(PID.TID 0000.0001) PTRACERS_long_names = /* Tracer long name */
(PID.TID 0000.0001)               ''
(PID.TID 0000.0001)     ;
(PID.TID 0000.0001) PTRACERS_ioLabel = /* tracer IO Label */
(PID.TID 0000.0001)               '1Z'
(PID.TID 0000.0001)     ;
(PID.TID 0000.0001) PTRACERS_advScheme = /* Advection Scheme */
(PID.TID 0000.0001)                      33
(PID.TID 0000.0001)     ;
(PID.TID 0000.0001) PTRACERS_SOM_Advection = /* tracer uses SOM advection scheme */
(PID.TID 0000.0001)                   F
(PID.TID 0000.0001)     ;
(PID.TID 0000.0001) PTRACERS_ImplVertAdv = /* implicit vert. advection flag */
(PID.TID 0000.0001)                   F
(PID.TID 0000.0001)     ;
(PID.TID 0000.0001) PTRACERS_MultiDimAdv = /* tracer uses Multi-Dim advection */
(PID.TID 0000.0001)                   T
(PID.TID 0000.0001)     ;
(PID.TID 0000.0001) PTRACERS_AdamsBashGtr = /* apply AB on tracer tendency */
(PID.TID 0000.0001)                   F
(PID.TID 0000.0001)     ;
(PID.TID 0000.0001) PTRACERS_AdamsBash_Tr = /* apply AB on passive tracer */
(PID.TID 0000.0001)                   F
(PID.TID 0000.0001)     ;
(PID.TID 0000.0001) PTRACERS_diffKh = /* Laplacian Diffusivity */
(PID.TID 0000.0001)                 0.000000000000000E+00
(PID.TID 0000.0001)     ;
(PID.TID 0000.0001) PTRACERS_diffK4 = /* Biharmonic Diffusivity */
(PID.TID 0000.0001)                 0.000000000000000E+00
(PID.TID 0000.0001)     ;
(PID.TID 0000.0001) PTRACERS_diffKrNr = /* Vertical Diffusivity */
(PID.TID 0000.0001)    35 @  1.000000000000000E-05              /* K =  1: 35 */
(PID.TID 0000.0001)     ;
(PID.TID 0000.0001) PTRACERS_useGMRedi = /* apply GM-Redi */
(PID.TID 0000.0001)                   F
(PID.TID 0000.0001)     ;
(PID.TID 0000.0001) PTRACERS_useDWNSLP = /* apply DOWN-SLOPE Flow */
(PID.TID 0000.0001)                   F
(PID.TID 0000.0001)     ;
(PID.TID 0000.0001) PTRACERS_useKPP = /* apply KPP scheme */
(PID.TID 0000.0001)                   T
(PID.TID 0000.0001)     ;
(PID.TID 0000.0001) PTRACERS_ref = /* Reference vertical profile */
(PID.TID 0000.0001)    35 @  0.000000000000000E+00              /* K =  1: 35 */
(PID.TID 0000.0001)     ;
(PID.TID 0000.0001) PTRACERS_EvPrRn =/* tracer conc. in Evap. & Rain */
(PID.TID 0000.0001)                 1.234567000000000E+05
(PID.TID 0000.0001)     ;
(PID.TID 0000.0001)  -----------------------------------
(PID.TID 0000.0001)  tracer number :  204
(PID.TID 0000.0001) PTRACERS_names = /* Tracer short name */
(PID.TID 0000.0001)               'si33'
(PID.TID 0000.0001)     ;
(PID.TID 0000.0001) PTRACERS_long_names = /* Tracer long name */
(PID.TID 0000.0001)               ''
(PID.TID 0000.0001)     ;
(PID.TID 0000.0001) PTRACERS_ioLabel = /* tracer IO Label */
(PID.TID 0000.0001)               '2a'
(PID.TID 0000.0001)     ;
(PID.TID 0000.0001) PTRACERS_advScheme = /* Advection Scheme */
(PID.TID 0000.0001)                      33
(PID.TID 0000.0001)     ;
(PID.TID 0000.0001) PTRACERS_SOM_Advection = /* tracer uses SOM advection scheme */
(PID.TID 0000.0001)                   F
(PID.TID 0000.0001)     ;
(PID.TID 0000.0001) PTRACERS_ImplVertAdv = /* implicit vert. advection flag */
(PID.TID 0000.0001)                   F
(PID.TID 0000.0001)     ;
(PID.TID 0000.0001) PTRACERS_MultiDimAdv = /* tracer uses Multi-Dim advection */
(PID.TID 0000.0001)                   T
(PID.TID 0000.0001)     ;
(PID.TID 0000.0001) PTRACERS_AdamsBashGtr = /* apply AB on tracer tendency */
(PID.TID 0000.0001)                   F
(PID.TID 0000.0001)     ;
(PID.TID 0000.0001) PTRACERS_AdamsBash_Tr = /* apply AB on passive tracer */
(PID.TID 0000.0001)                   F
(PID.TID 0000.0001)     ;
(PID.TID 0000.0001) PTRACERS_diffKh = /* Laplacian Diffusivity */
(PID.TID 0000.0001)                 0.000000000000000E+00
(PID.TID 0000.0001)     ;
(PID.TID 0000.0001) PTRACERS_diffK4 = /* Biharmonic Diffusivity */
(PID.TID 0000.0001)                 0.000000000000000E+00
(PID.TID 0000.0001)     ;
(PID.TID 0000.0001) PTRACERS_diffKrNr = /* Vertical Diffusivity */
(PID.TID 0000.0001)    35 @  1.000000000000000E-05              /* K =  1: 35 */
(PID.TID 0000.0001)     ;
(PID.TID 0000.0001) PTRACERS_useGMRedi = /* apply GM-Redi */
(PID.TID 0000.0001)                   F
(PID.TID 0000.0001)     ;
(PID.TID 0000.0001) PTRACERS_useDWNSLP = /* apply DOWN-SLOPE Flow */
(PID.TID 0000.0001)                   F
(PID.TID 0000.0001)     ;
(PID.TID 0000.0001) PTRACERS_useKPP = /* apply KPP scheme */
(PID.TID 0000.0001)                   T
(PID.TID 0000.0001)     ;
(PID.TID 0000.0001) PTRACERS_ref = /* Reference vertical profile */
(PID.TID 0000.0001)    35 @  0.000000000000000E+00              /* K =  1: 35 */
(PID.TID 0000.0001)     ;
(PID.TID 0000.0001) PTRACERS_EvPrRn =/* tracer conc. in Evap. & Rain */
(PID.TID 0000.0001)                 1.234567000000000E+05
(PID.TID 0000.0001)     ;
(PID.TID 0000.0001)  -----------------------------------
(PID.TID 0000.0001)  tracer number :  205
(PID.TID 0000.0001) PTRACERS_names = /* Tracer short name */
(PID.TID 0000.0001)               'si34'
(PID.TID 0000.0001)     ;
(PID.TID 0000.0001) PTRACERS_long_names = /* Tracer long name */
(PID.TID 0000.0001)               ''
(PID.TID 0000.0001)     ;
(PID.TID 0000.0001) PTRACERS_ioLabel = /* tracer IO Label */
(PID.TID 0000.0001)               '2b'
(PID.TID 0000.0001)     ;
(PID.TID 0000.0001) PTRACERS_advScheme = /* Advection Scheme */
(PID.TID 0000.0001)                      33
(PID.TID 0000.0001)     ;
(PID.TID 0000.0001) PTRACERS_SOM_Advection = /* tracer uses SOM advection scheme */
(PID.TID 0000.0001)                   F
(PID.TID 0000.0001)     ;
(PID.TID 0000.0001) PTRACERS_ImplVertAdv = /* implicit vert. advection flag */
(PID.TID 0000.0001)                   F
(PID.TID 0000.0001)     ;
(PID.TID 0000.0001) PTRACERS_MultiDimAdv = /* tracer uses Multi-Dim advection */
(PID.TID 0000.0001)                   T
(PID.TID 0000.0001)     ;
(PID.TID 0000.0001) PTRACERS_AdamsBashGtr = /* apply AB on tracer tendency */
(PID.TID 0000.0001)                   F
(PID.TID 0000.0001)     ;
(PID.TID 0000.0001) PTRACERS_AdamsBash_Tr = /* apply AB on passive tracer */
(PID.TID 0000.0001)                   F
(PID.TID 0000.0001)     ;
(PID.TID 0000.0001) PTRACERS_diffKh = /* Laplacian Diffusivity */
(PID.TID 0000.0001)                 0.000000000000000E+00
(PID.TID 0000.0001)     ;
(PID.TID 0000.0001) PTRACERS_diffK4 = /* Biharmonic Diffusivity */
(PID.TID 0000.0001)                 0.000000000000000E+00
(PID.TID 0000.0001)     ;
(PID.TID 0000.0001) PTRACERS_diffKrNr = /* Vertical Diffusivity */
(PID.TID 0000.0001)    35 @  1.000000000000000E-05              /* K =  1: 35 */
(PID.TID 0000.0001)     ;
(PID.TID 0000.0001) PTRACERS_useGMRedi = /* apply GM-Redi */
(PID.TID 0000.0001)                   F
(PID.TID 0000.0001)     ;
(PID.TID 0000.0001) PTRACERS_useDWNSLP = /* apply DOWN-SLOPE Flow */
(PID.TID 0000.0001)                   F
(PID.TID 0000.0001)     ;
(PID.TID 0000.0001) PTRACERS_useKPP = /* apply KPP scheme */
(PID.TID 0000.0001)                   T
(PID.TID 0000.0001)     ;
(PID.TID 0000.0001) PTRACERS_ref = /* Reference vertical profile */
(PID.TID 0000.0001)    35 @  0.000000000000000E+00              /* K =  1: 35 */
(PID.TID 0000.0001)     ;
(PID.TID 0000.0001) PTRACERS_EvPrRn =/* tracer conc. in Evap. & Rain */
(PID.TID 0000.0001)                 1.234567000000000E+05
(PID.TID 0000.0001)     ;
(PID.TID 0000.0001)  -----------------------------------
(PID.TID 0000.0001)  tracer number :  206
(PID.TID 0000.0001) PTRACERS_names = /* Tracer short name */
(PID.TID 0000.0001)               'si35'
(PID.TID 0000.0001)     ;
(PID.TID 0000.0001) PTRACERS_long_names = /* Tracer long name */
(PID.TID 0000.0001)               ''
(PID.TID 0000.0001)     ;
(PID.TID 0000.0001) PTRACERS_ioLabel = /* tracer IO Label */
(PID.TID 0000.0001)               '2c'
(PID.TID 0000.0001)     ;
(PID.TID 0000.0001) PTRACERS_advScheme = /* Advection Scheme */
(PID.TID 0000.0001)                      33
(PID.TID 0000.0001)     ;
(PID.TID 0000.0001) PTRACERS_SOM_Advection = /* tracer uses SOM advection scheme */
(PID.TID 0000.0001)                   F
(PID.TID 0000.0001)     ;
(PID.TID 0000.0001) PTRACERS_ImplVertAdv = /* implicit vert. advection flag */
(PID.TID 0000.0001)                   F
(PID.TID 0000.0001)     ;
(PID.TID 0000.0001) PTRACERS_MultiDimAdv = /* tracer uses Multi-Dim advection */
(PID.TID 0000.0001)                   T
(PID.TID 0000.0001)     ;
(PID.TID 0000.0001) PTRACERS_AdamsBashGtr = /* apply AB on tracer tendency */
(PID.TID 0000.0001)                   F
(PID.TID 0000.0001)     ;
(PID.TID 0000.0001) PTRACERS_AdamsBash_Tr = /* apply AB on passive tracer */
(PID.TID 0000.0001)                   F
(PID.TID 0000.0001)     ;
(PID.TID 0000.0001) PTRACERS_diffKh = /* Laplacian Diffusivity */
(PID.TID 0000.0001)                 0.000000000000000E+00
(PID.TID 0000.0001)     ;
(PID.TID 0000.0001) PTRACERS_diffK4 = /* Biharmonic Diffusivity */
(PID.TID 0000.0001)                 0.000000000000000E+00
(PID.TID 0000.0001)     ;
(PID.TID 0000.0001) PTRACERS_diffKrNr = /* Vertical Diffusivity */
(PID.TID 0000.0001)    35 @  1.000000000000000E-05              /* K =  1: 35 */
(PID.TID 0000.0001)     ;
(PID.TID 0000.0001) PTRACERS_useGMRedi = /* apply GM-Redi */
(PID.TID 0000.0001)                   F
(PID.TID 0000.0001)     ;
(PID.TID 0000.0001) PTRACERS_useDWNSLP = /* apply DOWN-SLOPE Flow */
(PID.TID 0000.0001)                   F
(PID.TID 0000.0001)     ;
(PID.TID 0000.0001) PTRACERS_useKPP = /* apply KPP scheme */
(PID.TID 0000.0001)                   T
(PID.TID 0000.0001)     ;
(PID.TID 0000.0001) PTRACERS_ref = /* Reference vertical profile */
(PID.TID 0000.0001)    35 @  0.000000000000000E+00              /* K =  1: 35 */
(PID.TID 0000.0001)     ;
(PID.TID 0000.0001) PTRACERS_EvPrRn =/* tracer conc. in Evap. & Rain */
(PID.TID 0000.0001)                 1.234567000000000E+05
(PID.TID 0000.0001)     ;
(PID.TID 0000.0001)  -----------------------------------
(PID.TID 0000.0001)  tracer number :  207
(PID.TID 0000.0001) PTRACERS_names = /* Tracer short name */
(PID.TID 0000.0001)               'si36'
(PID.TID 0000.0001)     ;
(PID.TID 0000.0001) PTRACERS_long_names = /* Tracer long name */
(PID.TID 0000.0001)               ''
(PID.TID 0000.0001)     ;
(PID.TID 0000.0001) PTRACERS_ioLabel = /* tracer IO Label */
(PID.TID 0000.0001)               '2d'
(PID.TID 0000.0001)     ;
(PID.TID 0000.0001) PTRACERS_advScheme = /* Advection Scheme */
(PID.TID 0000.0001)                      33
(PID.TID 0000.0001)     ;
(PID.TID 0000.0001) PTRACERS_SOM_Advection = /* tracer uses SOM advection scheme */
(PID.TID 0000.0001)                   F
(PID.TID 0000.0001)     ;
(PID.TID 0000.0001) PTRACERS_ImplVertAdv = /* implicit vert. advection flag */
(PID.TID 0000.0001)                   F
(PID.TID 0000.0001)     ;
(PID.TID 0000.0001) PTRACERS_MultiDimAdv = /* tracer uses Multi-Dim advection */
(PID.TID 0000.0001)                   T
(PID.TID 0000.0001)     ;
(PID.TID 0000.0001) PTRACERS_AdamsBashGtr = /* apply AB on tracer tendency */
(PID.TID 0000.0001)                   F
(PID.TID 0000.0001)     ;
(PID.TID 0000.0001) PTRACERS_AdamsBash_Tr = /* apply AB on passive tracer */
(PID.TID 0000.0001)                   F
(PID.TID 0000.0001)     ;
(PID.TID 0000.0001) PTRACERS_diffKh = /* Laplacian Diffusivity */
(PID.TID 0000.0001)                 0.000000000000000E+00
(PID.TID 0000.0001)     ;
(PID.TID 0000.0001) PTRACERS_diffK4 = /* Biharmonic Diffusivity */
(PID.TID 0000.0001)                 0.000000000000000E+00
(PID.TID 0000.0001)     ;
(PID.TID 0000.0001) PTRACERS_diffKrNr = /* Vertical Diffusivity */
(PID.TID 0000.0001)    35 @  1.000000000000000E-05              /* K =  1: 35 */
(PID.TID 0000.0001)     ;
(PID.TID 0000.0001) PTRACERS_useGMRedi = /* apply GM-Redi */
(PID.TID 0000.0001)                   F
(PID.TID 0000.0001)     ;
(PID.TID 0000.0001) PTRACERS_useDWNSLP = /* apply DOWN-SLOPE Flow */
(PID.TID 0000.0001)                   F
(PID.TID 0000.0001)     ;
(PID.TID 0000.0001) PTRACERS_useKPP = /* apply KPP scheme */
(PID.TID 0000.0001)                   T
(PID.TID 0000.0001)     ;
(PID.TID 0000.0001) PTRACERS_ref = /* Reference vertical profile */
(PID.TID 0000.0001)    35 @  0.000000000000000E+00              /* K =  1: 35 */
(PID.TID 0000.0001)     ;
(PID.TID 0000.0001) PTRACERS_EvPrRn =/* tracer conc. in Evap. & Rain */
(PID.TID 0000.0001)                 1.234567000000000E+05
(PID.TID 0000.0001)     ;
(PID.TID 0000.0001)  -----------------------------------
(PID.TID 0000.0001)  tracer number :  208
(PID.TID 0000.0001) PTRACERS_names = /* Tracer short name */
(PID.TID 0000.0001)               'si37'
(PID.TID 0000.0001)     ;
(PID.TID 0000.0001) PTRACERS_long_names = /* Tracer long name */
(PID.TID 0000.0001)               ''
(PID.TID 0000.0001)     ;
(PID.TID 0000.0001) PTRACERS_ioLabel = /* tracer IO Label */
(PID.TID 0000.0001)               '2e'
(PID.TID 0000.0001)     ;
(PID.TID 0000.0001) PTRACERS_advScheme = /* Advection Scheme */
(PID.TID 0000.0001)                      33
(PID.TID 0000.0001)     ;
(PID.TID 0000.0001) PTRACERS_SOM_Advection = /* tracer uses SOM advection scheme */
(PID.TID 0000.0001)                   F
(PID.TID 0000.0001)     ;
(PID.TID 0000.0001) PTRACERS_ImplVertAdv = /* implicit vert. advection flag */
(PID.TID 0000.0001)                   F
(PID.TID 0000.0001)     ;
(PID.TID 0000.0001) PTRACERS_MultiDimAdv = /* tracer uses Multi-Dim advection */
(PID.TID 0000.0001)                   T
(PID.TID 0000.0001)     ;
(PID.TID 0000.0001) PTRACERS_AdamsBashGtr = /* apply AB on tracer tendency */
(PID.TID 0000.0001)                   F
(PID.TID 0000.0001)     ;
(PID.TID 0000.0001) PTRACERS_AdamsBash_Tr = /* apply AB on passive tracer */
(PID.TID 0000.0001)                   F
(PID.TID 0000.0001)     ;
(PID.TID 0000.0001) PTRACERS_diffKh = /* Laplacian Diffusivity */
(PID.TID 0000.0001)                 0.000000000000000E+00
(PID.TID 0000.0001)     ;
(PID.TID 0000.0001) PTRACERS_diffK4 = /* Biharmonic Diffusivity */
(PID.TID 0000.0001)                 0.000000000000000E+00
(PID.TID 0000.0001)     ;
(PID.TID 0000.0001) PTRACERS_diffKrNr = /* Vertical Diffusivity */
(PID.TID 0000.0001)    35 @  1.000000000000000E-05              /* K =  1: 35 */
(PID.TID 0000.0001)     ;
(PID.TID 0000.0001) PTRACERS_useGMRedi = /* apply GM-Redi */
(PID.TID 0000.0001)                   F
(PID.TID 0000.0001)     ;
(PID.TID 0000.0001) PTRACERS_useDWNSLP = /* apply DOWN-SLOPE Flow */
(PID.TID 0000.0001)                   F
(PID.TID 0000.0001)     ;
(PID.TID 0000.0001) PTRACERS_useKPP = /* apply KPP scheme */
(PID.TID 0000.0001)                   T
(PID.TID 0000.0001)     ;
(PID.TID 0000.0001) PTRACERS_ref = /* Reference vertical profile */
(PID.TID 0000.0001)    35 @  0.000000000000000E+00              /* K =  1: 35 */
(PID.TID 0000.0001)     ;
(PID.TID 0000.0001) PTRACERS_EvPrRn =/* tracer conc. in Evap. & Rain */
(PID.TID 0000.0001)                 1.234567000000000E+05
(PID.TID 0000.0001)     ;
(PID.TID 0000.0001)  -----------------------------------
(PID.TID 0000.0001)  tracer number :  209
(PID.TID 0000.0001) PTRACERS_names = /* Tracer short name */
(PID.TID 0000.0001)               'si38'
(PID.TID 0000.0001)     ;
(PID.TID 0000.0001) PTRACERS_long_names = /* Tracer long name */
(PID.TID 0000.0001)               ''
(PID.TID 0000.0001)     ;
(PID.TID 0000.0001) PTRACERS_ioLabel = /* tracer IO Label */
(PID.TID 0000.0001)               '2f'
(PID.TID 0000.0001)     ;
(PID.TID 0000.0001) PTRACERS_advScheme = /* Advection Scheme */
(PID.TID 0000.0001)                      33
(PID.TID 0000.0001)     ;
(PID.TID 0000.0001) PTRACERS_SOM_Advection = /* tracer uses SOM advection scheme */
(PID.TID 0000.0001)                   F
(PID.TID 0000.0001)     ;
(PID.TID 0000.0001) PTRACERS_ImplVertAdv = /* implicit vert. advection flag */
(PID.TID 0000.0001)                   F
(PID.TID 0000.0001)     ;
(PID.TID 0000.0001) PTRACERS_MultiDimAdv = /* tracer uses Multi-Dim advection */
(PID.TID 0000.0001)                   T
(PID.TID 0000.0001)     ;
(PID.TID 0000.0001) PTRACERS_AdamsBashGtr = /* apply AB on tracer tendency */
(PID.TID 0000.0001)                   F
(PID.TID 0000.0001)     ;
(PID.TID 0000.0001) PTRACERS_AdamsBash_Tr = /* apply AB on passive tracer */
(PID.TID 0000.0001)                   F
(PID.TID 0000.0001)     ;
(PID.TID 0000.0001) PTRACERS_diffKh = /* Laplacian Diffusivity */
(PID.TID 0000.0001)                 0.000000000000000E+00
(PID.TID 0000.0001)     ;
(PID.TID 0000.0001) PTRACERS_diffK4 = /* Biharmonic Diffusivity */
(PID.TID 0000.0001)                 0.000000000000000E+00
(PID.TID 0000.0001)     ;
(PID.TID 0000.0001) PTRACERS_diffKrNr = /* Vertical Diffusivity */
(PID.TID 0000.0001)    35 @  1.000000000000000E-05              /* K =  1: 35 */
(PID.TID 0000.0001)     ;
(PID.TID 0000.0001) PTRACERS_useGMRedi = /* apply GM-Redi */
(PID.TID 0000.0001)                   F
(PID.TID 0000.0001)     ;
(PID.TID 0000.0001) PTRACERS_useDWNSLP = /* apply DOWN-SLOPE Flow */
(PID.TID 0000.0001)                   F
(PID.TID 0000.0001)     ;
(PID.TID 0000.0001) PTRACERS_useKPP = /* apply KPP scheme */
(PID.TID 0000.0001)                   T
(PID.TID 0000.0001)     ;
(PID.TID 0000.0001) PTRACERS_ref = /* Reference vertical profile */
(PID.TID 0000.0001)    35 @  0.000000000000000E+00              /* K =  1: 35 */
(PID.TID 0000.0001)     ;
(PID.TID 0000.0001) PTRACERS_EvPrRn =/* tracer conc. in Evap. & Rain */
(PID.TID 0000.0001)                 1.234567000000000E+05
(PID.TID 0000.0001)     ;
(PID.TID 0000.0001)  -----------------------------------
(PID.TID 0000.0001)  tracer number :  210
(PID.TID 0000.0001) PTRACERS_names = /* Tracer short name */
(PID.TID 0000.0001)               'Chl01'
(PID.TID 0000.0001)     ;
(PID.TID 0000.0001) PTRACERS_long_names = /* Tracer long name */
(PID.TID 0000.0001)               ''
(PID.TID 0000.0001)     ;
(PID.TID 0000.0001) PTRACERS_ioLabel = /* tracer IO Label */
(PID.TID 0000.0001)               '2g'
(PID.TID 0000.0001)     ;
(PID.TID 0000.0001) PTRACERS_advScheme = /* Advection Scheme */
(PID.TID 0000.0001)                      33
(PID.TID 0000.0001)     ;
(PID.TID 0000.0001) PTRACERS_SOM_Advection = /* tracer uses SOM advection scheme */
(PID.TID 0000.0001)                   F
(PID.TID 0000.0001)     ;
(PID.TID 0000.0001) PTRACERS_ImplVertAdv = /* implicit vert. advection flag */
(PID.TID 0000.0001)                   F
(PID.TID 0000.0001)     ;
(PID.TID 0000.0001) PTRACERS_MultiDimAdv = /* tracer uses Multi-Dim advection */
(PID.TID 0000.0001)                   T
(PID.TID 0000.0001)     ;
(PID.TID 0000.0001) PTRACERS_AdamsBashGtr = /* apply AB on tracer tendency */
(PID.TID 0000.0001)                   F
(PID.TID 0000.0001)     ;
(PID.TID 0000.0001) PTRACERS_AdamsBash_Tr = /* apply AB on passive tracer */
(PID.TID 0000.0001)                   F
(PID.TID 0000.0001)     ;
(PID.TID 0000.0001) PTRACERS_diffKh = /* Laplacian Diffusivity */
(PID.TID 0000.0001)                 0.000000000000000E+00
(PID.TID 0000.0001)     ;
(PID.TID 0000.0001) PTRACERS_diffK4 = /* Biharmonic Diffusivity */
(PID.TID 0000.0001)                 0.000000000000000E+00
(PID.TID 0000.0001)     ;
(PID.TID 0000.0001) PTRACERS_diffKrNr = /* Vertical Diffusivity */
(PID.TID 0000.0001)    35 @  1.000000000000000E-05              /* K =  1: 35 */
(PID.TID 0000.0001)     ;
(PID.TID 0000.0001) PTRACERS_useGMRedi = /* apply GM-Redi */
(PID.TID 0000.0001)                   F
(PID.TID 0000.0001)     ;
(PID.TID 0000.0001) PTRACERS_useDWNSLP = /* apply DOWN-SLOPE Flow */
(PID.TID 0000.0001)                   F
(PID.TID 0000.0001)     ;
(PID.TID 0000.0001) PTRACERS_useKPP = /* apply KPP scheme */
(PID.TID 0000.0001)                   T
(PID.TID 0000.0001)     ;
(PID.TID 0000.0001) PTRACERS_ref = /* Reference vertical profile */
(PID.TID 0000.0001)    35 @  0.000000000000000E+00              /* K =  1: 35 */
(PID.TID 0000.0001)     ;
(PID.TID 0000.0001) PTRACERS_EvPrRn =/* tracer conc. in Evap. & Rain */
(PID.TID 0000.0001)                 1.234567000000000E+05
(PID.TID 0000.0001)     ;
(PID.TID 0000.0001)  -----------------------------------
(PID.TID 0000.0001)  tracer number :  211
(PID.TID 0000.0001) PTRACERS_names = /* Tracer short name */
(PID.TID 0000.0001)               'Chl02'
(PID.TID 0000.0001)     ;
(PID.TID 0000.0001) PTRACERS_long_names = /* Tracer long name */
(PID.TID 0000.0001)               ''
(PID.TID 0000.0001)     ;
(PID.TID 0000.0001) PTRACERS_ioLabel = /* tracer IO Label */
(PID.TID 0000.0001)               '2h'
(PID.TID 0000.0001)     ;
(PID.TID 0000.0001) PTRACERS_advScheme = /* Advection Scheme */
(PID.TID 0000.0001)                      33
(PID.TID 0000.0001)     ;
(PID.TID 0000.0001) PTRACERS_SOM_Advection = /* tracer uses SOM advection scheme */
(PID.TID 0000.0001)                   F
(PID.TID 0000.0001)     ;
(PID.TID 0000.0001) PTRACERS_ImplVertAdv = /* implicit vert. advection flag */
(PID.TID 0000.0001)                   F
(PID.TID 0000.0001)     ;
(PID.TID 0000.0001) PTRACERS_MultiDimAdv = /* tracer uses Multi-Dim advection */
(PID.TID 0000.0001)                   T
(PID.TID 0000.0001)     ;
(PID.TID 0000.0001) PTRACERS_AdamsBashGtr = /* apply AB on tracer tendency */
(PID.TID 0000.0001)                   F
(PID.TID 0000.0001)     ;
(PID.TID 0000.0001) PTRACERS_AdamsBash_Tr = /* apply AB on passive tracer */
(PID.TID 0000.0001)                   F
(PID.TID 0000.0001)     ;
(PID.TID 0000.0001) PTRACERS_diffKh = /* Laplacian Diffusivity */
(PID.TID 0000.0001)                 0.000000000000000E+00
(PID.TID 0000.0001)     ;
(PID.TID 0000.0001) PTRACERS_diffK4 = /* Biharmonic Diffusivity */
(PID.TID 0000.0001)                 0.000000000000000E+00
(PID.TID 0000.0001)     ;
(PID.TID 0000.0001) PTRACERS_diffKrNr = /* Vertical Diffusivity */
(PID.TID 0000.0001)    35 @  1.000000000000000E-05              /* K =  1: 35 */
(PID.TID 0000.0001)     ;
(PID.TID 0000.0001) PTRACERS_useGMRedi = /* apply GM-Redi */
(PID.TID 0000.0001)                   F
(PID.TID 0000.0001)     ;
(PID.TID 0000.0001) PTRACERS_useDWNSLP = /* apply DOWN-SLOPE Flow */
(PID.TID 0000.0001)                   F
(PID.TID 0000.0001)     ;
(PID.TID 0000.0001) PTRACERS_useKPP = /* apply KPP scheme */
(PID.TID 0000.0001)                   T
(PID.TID 0000.0001)     ;
(PID.TID 0000.0001) PTRACERS_ref = /* Reference vertical profile */
(PID.TID 0000.0001)    35 @  0.000000000000000E+00              /* K =  1: 35 */
(PID.TID 0000.0001)     ;
(PID.TID 0000.0001) PTRACERS_EvPrRn =/* tracer conc. in Evap. & Rain */
(PID.TID 0000.0001)                 1.234567000000000E+05
(PID.TID 0000.0001)     ;
(PID.TID 0000.0001)  -----------------------------------
(PID.TID 0000.0001)  tracer number :  212
(PID.TID 0000.0001) PTRACERS_names = /* Tracer short name */
(PID.TID 0000.0001)               'Chl03'
(PID.TID 0000.0001)     ;
(PID.TID 0000.0001) PTRACERS_long_names = /* Tracer long name */
(PID.TID 0000.0001)               ''
(PID.TID 0000.0001)     ;
(PID.TID 0000.0001) PTRACERS_ioLabel = /* tracer IO Label */
(PID.TID 0000.0001)               '2i'
(PID.TID 0000.0001)     ;
(PID.TID 0000.0001) PTRACERS_advScheme = /* Advection Scheme */
(PID.TID 0000.0001)                      33
(PID.TID 0000.0001)     ;
(PID.TID 0000.0001) PTRACERS_SOM_Advection = /* tracer uses SOM advection scheme */
(PID.TID 0000.0001)                   F
(PID.TID 0000.0001)     ;
(PID.TID 0000.0001) PTRACERS_ImplVertAdv = /* implicit vert. advection flag */
(PID.TID 0000.0001)                   F
(PID.TID 0000.0001)     ;
(PID.TID 0000.0001) PTRACERS_MultiDimAdv = /* tracer uses Multi-Dim advection */
(PID.TID 0000.0001)                   T
(PID.TID 0000.0001)     ;
(PID.TID 0000.0001) PTRACERS_AdamsBashGtr = /* apply AB on tracer tendency */
(PID.TID 0000.0001)                   F
(PID.TID 0000.0001)     ;
(PID.TID 0000.0001) PTRACERS_AdamsBash_Tr = /* apply AB on passive tracer */
(PID.TID 0000.0001)                   F
(PID.TID 0000.0001)     ;
(PID.TID 0000.0001) PTRACERS_diffKh = /* Laplacian Diffusivity */
(PID.TID 0000.0001)                 0.000000000000000E+00
(PID.TID 0000.0001)     ;
(PID.TID 0000.0001) PTRACERS_diffK4 = /* Biharmonic Diffusivity */
(PID.TID 0000.0001)                 0.000000000000000E+00
(PID.TID 0000.0001)     ;
(PID.TID 0000.0001) PTRACERS_diffKrNr = /* Vertical Diffusivity */
(PID.TID 0000.0001)    35 @  1.000000000000000E-05              /* K =  1: 35 */
(PID.TID 0000.0001)     ;
(PID.TID 0000.0001) PTRACERS_useGMRedi = /* apply GM-Redi */
(PID.TID 0000.0001)                   F
(PID.TID 0000.0001)     ;
(PID.TID 0000.0001) PTRACERS_useDWNSLP = /* apply DOWN-SLOPE Flow */
(PID.TID 0000.0001)                   F
(PID.TID 0000.0001)     ;
(PID.TID 0000.0001) PTRACERS_useKPP = /* apply KPP scheme */
(PID.TID 0000.0001)                   T
(PID.TID 0000.0001)     ;
(PID.TID 0000.0001) PTRACERS_ref = /* Reference vertical profile */
(PID.TID 0000.0001)    35 @  0.000000000000000E+00              /* K =  1: 35 */
(PID.TID 0000.0001)     ;
(PID.TID 0000.0001) PTRACERS_EvPrRn =/* tracer conc. in Evap. & Rain */
(PID.TID 0000.0001)                 1.234567000000000E+05
(PID.TID 0000.0001)     ;
(PID.TID 0000.0001)  -----------------------------------
(PID.TID 0000.0001)  tracer number :  213
(PID.TID 0000.0001) PTRACERS_names = /* Tracer short name */
(PID.TID 0000.0001)               'Chl04'
(PID.TID 0000.0001)     ;
(PID.TID 0000.0001) PTRACERS_long_names = /* Tracer long name */
(PID.TID 0000.0001)               ''
(PID.TID 0000.0001)     ;
(PID.TID 0000.0001) PTRACERS_ioLabel = /* tracer IO Label */
(PID.TID 0000.0001)               '2j'
(PID.TID 0000.0001)     ;
(PID.TID 0000.0001) PTRACERS_advScheme = /* Advection Scheme */
(PID.TID 0000.0001)                      33
(PID.TID 0000.0001)     ;
(PID.TID 0000.0001) PTRACERS_SOM_Advection = /* tracer uses SOM advection scheme */
(PID.TID 0000.0001)                   F
(PID.TID 0000.0001)     ;
(PID.TID 0000.0001) PTRACERS_ImplVertAdv = /* implicit vert. advection flag */
(PID.TID 0000.0001)                   F
(PID.TID 0000.0001)     ;
(PID.TID 0000.0001) PTRACERS_MultiDimAdv = /* tracer uses Multi-Dim advection */
(PID.TID 0000.0001)                   T
(PID.TID 0000.0001)     ;
(PID.TID 0000.0001) PTRACERS_AdamsBashGtr = /* apply AB on tracer tendency */
(PID.TID 0000.0001)                   F
(PID.TID 0000.0001)     ;
(PID.TID 0000.0001) PTRACERS_AdamsBash_Tr = /* apply AB on passive tracer */
(PID.TID 0000.0001)                   F
(PID.TID 0000.0001)     ;
(PID.TID 0000.0001) PTRACERS_diffKh = /* Laplacian Diffusivity */
(PID.TID 0000.0001)                 0.000000000000000E+00
(PID.TID 0000.0001)     ;
(PID.TID 0000.0001) PTRACERS_diffK4 = /* Biharmonic Diffusivity */
(PID.TID 0000.0001)                 0.000000000000000E+00
(PID.TID 0000.0001)     ;
(PID.TID 0000.0001) PTRACERS_diffKrNr = /* Vertical Diffusivity */
(PID.TID 0000.0001)    35 @  1.000000000000000E-05              /* K =  1: 35 */
(PID.TID 0000.0001)     ;
(PID.TID 0000.0001) PTRACERS_useGMRedi = /* apply GM-Redi */
(PID.TID 0000.0001)                   F
(PID.TID 0000.0001)     ;
(PID.TID 0000.0001) PTRACERS_useDWNSLP = /* apply DOWN-SLOPE Flow */
(PID.TID 0000.0001)                   F
(PID.TID 0000.0001)     ;
(PID.TID 0000.0001) PTRACERS_useKPP = /* apply KPP scheme */
(PID.TID 0000.0001)                   T
(PID.TID 0000.0001)     ;
(PID.TID 0000.0001) PTRACERS_ref = /* Reference vertical profile */
(PID.TID 0000.0001)    35 @  0.000000000000000E+00              /* K =  1: 35 */
(PID.TID 0000.0001)     ;
(PID.TID 0000.0001) PTRACERS_EvPrRn =/* tracer conc. in Evap. & Rain */
(PID.TID 0000.0001)                 1.234567000000000E+05
(PID.TID 0000.0001)     ;
(PID.TID 0000.0001)  -----------------------------------
(PID.TID 0000.0001)  tracer number :  214
(PID.TID 0000.0001) PTRACERS_names = /* Tracer short name */
(PID.TID 0000.0001)               'Chl05'
(PID.TID 0000.0001)     ;
(PID.TID 0000.0001) PTRACERS_long_names = /* Tracer long name */
(PID.TID 0000.0001)               ''
(PID.TID 0000.0001)     ;
(PID.TID 0000.0001) PTRACERS_ioLabel = /* tracer IO Label */
(PID.TID 0000.0001)               '2k'
(PID.TID 0000.0001)     ;
(PID.TID 0000.0001) PTRACERS_advScheme = /* Advection Scheme */
(PID.TID 0000.0001)                      33
(PID.TID 0000.0001)     ;
(PID.TID 0000.0001) PTRACERS_SOM_Advection = /* tracer uses SOM advection scheme */
(PID.TID 0000.0001)                   F
(PID.TID 0000.0001)     ;
(PID.TID 0000.0001) PTRACERS_ImplVertAdv = /* implicit vert. advection flag */
(PID.TID 0000.0001)                   F
(PID.TID 0000.0001)     ;
(PID.TID 0000.0001) PTRACERS_MultiDimAdv = /* tracer uses Multi-Dim advection */
(PID.TID 0000.0001)                   T
(PID.TID 0000.0001)     ;
(PID.TID 0000.0001) PTRACERS_AdamsBashGtr = /* apply AB on tracer tendency */
(PID.TID 0000.0001)                   F
(PID.TID 0000.0001)     ;
(PID.TID 0000.0001) PTRACERS_AdamsBash_Tr = /* apply AB on passive tracer */
(PID.TID 0000.0001)                   F
(PID.TID 0000.0001)     ;
(PID.TID 0000.0001) PTRACERS_diffKh = /* Laplacian Diffusivity */
(PID.TID 0000.0001)                 0.000000000000000E+00
(PID.TID 0000.0001)     ;
(PID.TID 0000.0001) PTRACERS_diffK4 = /* Biharmonic Diffusivity */
(PID.TID 0000.0001)                 0.000000000000000E+00
(PID.TID 0000.0001)     ;
(PID.TID 0000.0001) PTRACERS_diffKrNr = /* Vertical Diffusivity */
(PID.TID 0000.0001)    35 @  1.000000000000000E-05              /* K =  1: 35 */
(PID.TID 0000.0001)     ;
(PID.TID 0000.0001) PTRACERS_useGMRedi = /* apply GM-Redi */
(PID.TID 0000.0001)                   F
(PID.TID 0000.0001)     ;
(PID.TID 0000.0001) PTRACERS_useDWNSLP = /* apply DOWN-SLOPE Flow */
(PID.TID 0000.0001)                   F
(PID.TID 0000.0001)     ;
(PID.TID 0000.0001) PTRACERS_useKPP = /* apply KPP scheme */
(PID.TID 0000.0001)                   T
(PID.TID 0000.0001)     ;
(PID.TID 0000.0001) PTRACERS_ref = /* Reference vertical profile */
(PID.TID 0000.0001)    35 @  0.000000000000000E+00              /* K =  1: 35 */
(PID.TID 0000.0001)     ;
(PID.TID 0000.0001) PTRACERS_EvPrRn =/* tracer conc. in Evap. & Rain */
(PID.TID 0000.0001)                 1.234567000000000E+05
(PID.TID 0000.0001)     ;
(PID.TID 0000.0001)  -----------------------------------
(PID.TID 0000.0001)  tracer number :  215
(PID.TID 0000.0001) PTRACERS_names = /* Tracer short name */
(PID.TID 0000.0001)               'Chl06'
(PID.TID 0000.0001)     ;
(PID.TID 0000.0001) PTRACERS_long_names = /* Tracer long name */
(PID.TID 0000.0001)               ''
(PID.TID 0000.0001)     ;
(PID.TID 0000.0001) PTRACERS_ioLabel = /* tracer IO Label */
(PID.TID 0000.0001)               '2l'
(PID.TID 0000.0001)     ;
(PID.TID 0000.0001) PTRACERS_advScheme = /* Advection Scheme */
(PID.TID 0000.0001)                      33
(PID.TID 0000.0001)     ;
(PID.TID 0000.0001) PTRACERS_SOM_Advection = /* tracer uses SOM advection scheme */
(PID.TID 0000.0001)                   F
(PID.TID 0000.0001)     ;
(PID.TID 0000.0001) PTRACERS_ImplVertAdv = /* implicit vert. advection flag */
(PID.TID 0000.0001)                   F
(PID.TID 0000.0001)     ;
(PID.TID 0000.0001) PTRACERS_MultiDimAdv = /* tracer uses Multi-Dim advection */
(PID.TID 0000.0001)                   T
(PID.TID 0000.0001)     ;
(PID.TID 0000.0001) PTRACERS_AdamsBashGtr = /* apply AB on tracer tendency */
(PID.TID 0000.0001)                   F
(PID.TID 0000.0001)     ;
(PID.TID 0000.0001) PTRACERS_AdamsBash_Tr = /* apply AB on passive tracer */
(PID.TID 0000.0001)                   F
(PID.TID 0000.0001)     ;
(PID.TID 0000.0001) PTRACERS_diffKh = /* Laplacian Diffusivity */
(PID.TID 0000.0001)                 0.000000000000000E+00
(PID.TID 0000.0001)     ;
(PID.TID 0000.0001) PTRACERS_diffK4 = /* Biharmonic Diffusivity */
(PID.TID 0000.0001)                 0.000000000000000E+00
(PID.TID 0000.0001)     ;
(PID.TID 0000.0001) PTRACERS_diffKrNr = /* Vertical Diffusivity */
(PID.TID 0000.0001)    35 @  1.000000000000000E-05              /* K =  1: 35 */
(PID.TID 0000.0001)     ;
(PID.TID 0000.0001) PTRACERS_useGMRedi = /* apply GM-Redi */
(PID.TID 0000.0001)                   F
(PID.TID 0000.0001)     ;
(PID.TID 0000.0001) PTRACERS_useDWNSLP = /* apply DOWN-SLOPE Flow */
(PID.TID 0000.0001)                   F
(PID.TID 0000.0001)     ;
(PID.TID 0000.0001) PTRACERS_useKPP = /* apply KPP scheme */
(PID.TID 0000.0001)                   T
(PID.TID 0000.0001)     ;
(PID.TID 0000.0001) PTRACERS_ref = /* Reference vertical profile */
(PID.TID 0000.0001)    35 @  0.000000000000000E+00              /* K =  1: 35 */
(PID.TID 0000.0001)     ;
(PID.TID 0000.0001) PTRACERS_EvPrRn =/* tracer conc. in Evap. & Rain */
(PID.TID 0000.0001)                 1.234567000000000E+05
(PID.TID 0000.0001)     ;
(PID.TID 0000.0001)  -----------------------------------
(PID.TID 0000.0001)  tracer number :  216
(PID.TID 0000.0001) PTRACERS_names = /* Tracer short name */
(PID.TID 0000.0001)               'Chl07'
(PID.TID 0000.0001)     ;
(PID.TID 0000.0001) PTRACERS_long_names = /* Tracer long name */
(PID.TID 0000.0001)               ''
(PID.TID 0000.0001)     ;
(PID.TID 0000.0001) PTRACERS_ioLabel = /* tracer IO Label */
(PID.TID 0000.0001)               '2m'
(PID.TID 0000.0001)     ;
(PID.TID 0000.0001) PTRACERS_advScheme = /* Advection Scheme */
(PID.TID 0000.0001)                      33
(PID.TID 0000.0001)     ;
(PID.TID 0000.0001) PTRACERS_SOM_Advection = /* tracer uses SOM advection scheme */
(PID.TID 0000.0001)                   F
(PID.TID 0000.0001)     ;
(PID.TID 0000.0001) PTRACERS_ImplVertAdv = /* implicit vert. advection flag */
(PID.TID 0000.0001)                   F
(PID.TID 0000.0001)     ;
(PID.TID 0000.0001) PTRACERS_MultiDimAdv = /* tracer uses Multi-Dim advection */
(PID.TID 0000.0001)                   T
(PID.TID 0000.0001)     ;
(PID.TID 0000.0001) PTRACERS_AdamsBashGtr = /* apply AB on tracer tendency */
(PID.TID 0000.0001)                   F
(PID.TID 0000.0001)     ;
(PID.TID 0000.0001) PTRACERS_AdamsBash_Tr = /* apply AB on passive tracer */
(PID.TID 0000.0001)                   F
(PID.TID 0000.0001)     ;
(PID.TID 0000.0001) PTRACERS_diffKh = /* Laplacian Diffusivity */
(PID.TID 0000.0001)                 0.000000000000000E+00
(PID.TID 0000.0001)     ;
(PID.TID 0000.0001) PTRACERS_diffK4 = /* Biharmonic Diffusivity */
(PID.TID 0000.0001)                 0.000000000000000E+00
(PID.TID 0000.0001)     ;
(PID.TID 0000.0001) PTRACERS_diffKrNr = /* Vertical Diffusivity */
(PID.TID 0000.0001)    35 @  1.000000000000000E-05              /* K =  1: 35 */
(PID.TID 0000.0001)     ;
(PID.TID 0000.0001) PTRACERS_useGMRedi = /* apply GM-Redi */
(PID.TID 0000.0001)                   F
(PID.TID 0000.0001)     ;
(PID.TID 0000.0001) PTRACERS_useDWNSLP = /* apply DOWN-SLOPE Flow */
(PID.TID 0000.0001)                   F
(PID.TID 0000.0001)     ;
(PID.TID 0000.0001) PTRACERS_useKPP = /* apply KPP scheme */
(PID.TID 0000.0001)                   T
(PID.TID 0000.0001)     ;
(PID.TID 0000.0001) PTRACERS_ref = /* Reference vertical profile */
(PID.TID 0000.0001)    35 @  0.000000000000000E+00              /* K =  1: 35 */
(PID.TID 0000.0001)     ;
(PID.TID 0000.0001) PTRACERS_EvPrRn =/* tracer conc. in Evap. & Rain */
(PID.TID 0000.0001)                 1.234567000000000E+05
(PID.TID 0000.0001)     ;
(PID.TID 0000.0001)  -----------------------------------
(PID.TID 0000.0001)  tracer number :  217
(PID.TID 0000.0001) PTRACERS_names = /* Tracer short name */
(PID.TID 0000.0001)               'Chl08'
(PID.TID 0000.0001)     ;
(PID.TID 0000.0001) PTRACERS_long_names = /* Tracer long name */
(PID.TID 0000.0001)               ''
(PID.TID 0000.0001)     ;
(PID.TID 0000.0001) PTRACERS_ioLabel = /* tracer IO Label */
(PID.TID 0000.0001)               '2n'
(PID.TID 0000.0001)     ;
(PID.TID 0000.0001) PTRACERS_advScheme = /* Advection Scheme */
(PID.TID 0000.0001)                      33
(PID.TID 0000.0001)     ;
(PID.TID 0000.0001) PTRACERS_SOM_Advection = /* tracer uses SOM advection scheme */
(PID.TID 0000.0001)                   F
(PID.TID 0000.0001)     ;
(PID.TID 0000.0001) PTRACERS_ImplVertAdv = /* implicit vert. advection flag */
(PID.TID 0000.0001)                   F
(PID.TID 0000.0001)     ;
(PID.TID 0000.0001) PTRACERS_MultiDimAdv = /* tracer uses Multi-Dim advection */
(PID.TID 0000.0001)                   T
(PID.TID 0000.0001)     ;
(PID.TID 0000.0001) PTRACERS_AdamsBashGtr = /* apply AB on tracer tendency */
(PID.TID 0000.0001)                   F
(PID.TID 0000.0001)     ;
(PID.TID 0000.0001) PTRACERS_AdamsBash_Tr = /* apply AB on passive tracer */
(PID.TID 0000.0001)                   F
(PID.TID 0000.0001)     ;
(PID.TID 0000.0001) PTRACERS_diffKh = /* Laplacian Diffusivity */
(PID.TID 0000.0001)                 0.000000000000000E+00
(PID.TID 0000.0001)     ;
(PID.TID 0000.0001) PTRACERS_diffK4 = /* Biharmonic Diffusivity */
(PID.TID 0000.0001)                 0.000000000000000E+00
(PID.TID 0000.0001)     ;
(PID.TID 0000.0001) PTRACERS_diffKrNr = /* Vertical Diffusivity */
(PID.TID 0000.0001)    35 @  1.000000000000000E-05              /* K =  1: 35 */
(PID.TID 0000.0001)     ;
(PID.TID 0000.0001) PTRACERS_useGMRedi = /* apply GM-Redi */
(PID.TID 0000.0001)                   F
(PID.TID 0000.0001)     ;
(PID.TID 0000.0001) PTRACERS_useDWNSLP = /* apply DOWN-SLOPE Flow */
(PID.TID 0000.0001)                   F
(PID.TID 0000.0001)     ;
(PID.TID 0000.0001) PTRACERS_useKPP = /* apply KPP scheme */
(PID.TID 0000.0001)                   T
(PID.TID 0000.0001)     ;
(PID.TID 0000.0001) PTRACERS_ref = /* Reference vertical profile */
(PID.TID 0000.0001)    35 @  0.000000000000000E+00              /* K =  1: 35 */
(PID.TID 0000.0001)     ;
(PID.TID 0000.0001) PTRACERS_EvPrRn =/* tracer conc. in Evap. & Rain */
(PID.TID 0000.0001)                 1.234567000000000E+05
(PID.TID 0000.0001)     ;
(PID.TID 0000.0001)  -----------------------------------
(PID.TID 0000.0001)  tracer number :  218
(PID.TID 0000.0001) PTRACERS_names = /* Tracer short name */
(PID.TID 0000.0001)               'Chl09'
(PID.TID 0000.0001)     ;
(PID.TID 0000.0001) PTRACERS_long_names = /* Tracer long name */
(PID.TID 0000.0001)               ''
(PID.TID 0000.0001)     ;
(PID.TID 0000.0001) PTRACERS_ioLabel = /* tracer IO Label */
(PID.TID 0000.0001)               '2o'
(PID.TID 0000.0001)     ;
(PID.TID 0000.0001) PTRACERS_advScheme = /* Advection Scheme */
(PID.TID 0000.0001)                      33
(PID.TID 0000.0001)     ;
(PID.TID 0000.0001) PTRACERS_SOM_Advection = /* tracer uses SOM advection scheme */
(PID.TID 0000.0001)                   F
(PID.TID 0000.0001)     ;
(PID.TID 0000.0001) PTRACERS_ImplVertAdv = /* implicit vert. advection flag */
(PID.TID 0000.0001)                   F
(PID.TID 0000.0001)     ;
(PID.TID 0000.0001) PTRACERS_MultiDimAdv = /* tracer uses Multi-Dim advection */
(PID.TID 0000.0001)                   T
(PID.TID 0000.0001)     ;
(PID.TID 0000.0001) PTRACERS_AdamsBashGtr = /* apply AB on tracer tendency */
(PID.TID 0000.0001)                   F
(PID.TID 0000.0001)     ;
(PID.TID 0000.0001) PTRACERS_AdamsBash_Tr = /* apply AB on passive tracer */
(PID.TID 0000.0001)                   F
(PID.TID 0000.0001)     ;
(PID.TID 0000.0001) PTRACERS_diffKh = /* Laplacian Diffusivity */
(PID.TID 0000.0001)                 0.000000000000000E+00
(PID.TID 0000.0001)     ;
(PID.TID 0000.0001) PTRACERS_diffK4 = /* Biharmonic Diffusivity */
(PID.TID 0000.0001)                 0.000000000000000E+00
(PID.TID 0000.0001)     ;
(PID.TID 0000.0001) PTRACERS_diffKrNr = /* Vertical Diffusivity */
(PID.TID 0000.0001)    35 @  1.000000000000000E-05              /* K =  1: 35 */
(PID.TID 0000.0001)     ;
(PID.TID 0000.0001) PTRACERS_useGMRedi = /* apply GM-Redi */
(PID.TID 0000.0001)                   F
(PID.TID 0000.0001)     ;
(PID.TID 0000.0001) PTRACERS_useDWNSLP = /* apply DOWN-SLOPE Flow */
(PID.TID 0000.0001)                   F
(PID.TID 0000.0001)     ;
(PID.TID 0000.0001) PTRACERS_useKPP = /* apply KPP scheme */
(PID.TID 0000.0001)                   T
(PID.TID 0000.0001)     ;
(PID.TID 0000.0001) PTRACERS_ref = /* Reference vertical profile */
(PID.TID 0000.0001)    35 @  0.000000000000000E+00              /* K =  1: 35 */
(PID.TID 0000.0001)     ;
(PID.TID 0000.0001) PTRACERS_EvPrRn =/* tracer conc. in Evap. & Rain */
(PID.TID 0000.0001)                 1.234567000000000E+05
(PID.TID 0000.0001)     ;
(PID.TID 0000.0001)  -----------------------------------
(PID.TID 0000.0001)  tracer number :  219
(PID.TID 0000.0001) PTRACERS_names = /* Tracer short name */
(PID.TID 0000.0001)               'Chl10'
(PID.TID 0000.0001)     ;
(PID.TID 0000.0001) PTRACERS_long_names = /* Tracer long name */
(PID.TID 0000.0001)               ''
(PID.TID 0000.0001)     ;
(PID.TID 0000.0001) PTRACERS_ioLabel = /* tracer IO Label */
(PID.TID 0000.0001)               '2p'
(PID.TID 0000.0001)     ;
(PID.TID 0000.0001) PTRACERS_advScheme = /* Advection Scheme */
(PID.TID 0000.0001)                      33
(PID.TID 0000.0001)     ;
(PID.TID 0000.0001) PTRACERS_SOM_Advection = /* tracer uses SOM advection scheme */
(PID.TID 0000.0001)                   F
(PID.TID 0000.0001)     ;
(PID.TID 0000.0001) PTRACERS_ImplVertAdv = /* implicit vert. advection flag */
(PID.TID 0000.0001)                   F
(PID.TID 0000.0001)     ;
(PID.TID 0000.0001) PTRACERS_MultiDimAdv = /* tracer uses Multi-Dim advection */
(PID.TID 0000.0001)                   T
(PID.TID 0000.0001)     ;
(PID.TID 0000.0001) PTRACERS_AdamsBashGtr = /* apply AB on tracer tendency */
(PID.TID 0000.0001)                   F
(PID.TID 0000.0001)     ;
(PID.TID 0000.0001) PTRACERS_AdamsBash_Tr = /* apply AB on passive tracer */
(PID.TID 0000.0001)                   F
(PID.TID 0000.0001)     ;
(PID.TID 0000.0001) PTRACERS_diffKh = /* Laplacian Diffusivity */
(PID.TID 0000.0001)                 0.000000000000000E+00
(PID.TID 0000.0001)     ;
(PID.TID 0000.0001) PTRACERS_diffK4 = /* Biharmonic Diffusivity */
(PID.TID 0000.0001)                 0.000000000000000E+00
(PID.TID 0000.0001)     ;
(PID.TID 0000.0001) PTRACERS_diffKrNr = /* Vertical Diffusivity */
(PID.TID 0000.0001)    35 @  1.000000000000000E-05              /* K =  1: 35 */
(PID.TID 0000.0001)     ;
(PID.TID 0000.0001) PTRACERS_useGMRedi = /* apply GM-Redi */
(PID.TID 0000.0001)                   F
(PID.TID 0000.0001)     ;
(PID.TID 0000.0001) PTRACERS_useDWNSLP = /* apply DOWN-SLOPE Flow */
(PID.TID 0000.0001)                   F
(PID.TID 0000.0001)     ;
(PID.TID 0000.0001) PTRACERS_useKPP = /* apply KPP scheme */
(PID.TID 0000.0001)                   T
(PID.TID 0000.0001)     ;
(PID.TID 0000.0001) PTRACERS_ref = /* Reference vertical profile */
(PID.TID 0000.0001)    35 @  0.000000000000000E+00              /* K =  1: 35 */
(PID.TID 0000.0001)     ;
(PID.TID 0000.0001) PTRACERS_EvPrRn =/* tracer conc. in Evap. & Rain */
(PID.TID 0000.0001)                 1.234567000000000E+05
(PID.TID 0000.0001)     ;
(PID.TID 0000.0001)  -----------------------------------
(PID.TID 0000.0001)  tracer number :  220
(PID.TID 0000.0001) PTRACERS_names = /* Tracer short name */
(PID.TID 0000.0001)               'Chl11'
(PID.TID 0000.0001)     ;
(PID.TID 0000.0001) PTRACERS_long_names = /* Tracer long name */
(PID.TID 0000.0001)               ''
(PID.TID 0000.0001)     ;
(PID.TID 0000.0001) PTRACERS_ioLabel = /* tracer IO Label */
(PID.TID 0000.0001)               '2q'
(PID.TID 0000.0001)     ;
(PID.TID 0000.0001) PTRACERS_advScheme = /* Advection Scheme */
(PID.TID 0000.0001)                      33
(PID.TID 0000.0001)     ;
(PID.TID 0000.0001) PTRACERS_SOM_Advection = /* tracer uses SOM advection scheme */
(PID.TID 0000.0001)                   F
(PID.TID 0000.0001)     ;
(PID.TID 0000.0001) PTRACERS_ImplVertAdv = /* implicit vert. advection flag */
(PID.TID 0000.0001)                   F
(PID.TID 0000.0001)     ;
(PID.TID 0000.0001) PTRACERS_MultiDimAdv = /* tracer uses Multi-Dim advection */
(PID.TID 0000.0001)                   T
(PID.TID 0000.0001)     ;
(PID.TID 0000.0001) PTRACERS_AdamsBashGtr = /* apply AB on tracer tendency */
(PID.TID 0000.0001)                   F
(PID.TID 0000.0001)     ;
(PID.TID 0000.0001) PTRACERS_AdamsBash_Tr = /* apply AB on passive tracer */
(PID.TID 0000.0001)                   F
(PID.TID 0000.0001)     ;
(PID.TID 0000.0001) PTRACERS_diffKh = /* Laplacian Diffusivity */
(PID.TID 0000.0001)                 0.000000000000000E+00
(PID.TID 0000.0001)     ;
(PID.TID 0000.0001) PTRACERS_diffK4 = /* Biharmonic Diffusivity */
(PID.TID 0000.0001)                 0.000000000000000E+00
(PID.TID 0000.0001)     ;
(PID.TID 0000.0001) PTRACERS_diffKrNr = /* Vertical Diffusivity */
(PID.TID 0000.0001)    35 @  1.000000000000000E-05              /* K =  1: 35 */
(PID.TID 0000.0001)     ;
(PID.TID 0000.0001) PTRACERS_useGMRedi = /* apply GM-Redi */
(PID.TID 0000.0001)                   F
(PID.TID 0000.0001)     ;
(PID.TID 0000.0001) PTRACERS_useDWNSLP = /* apply DOWN-SLOPE Flow */
(PID.TID 0000.0001)                   F
(PID.TID 0000.0001)     ;
(PID.TID 0000.0001) PTRACERS_useKPP = /* apply KPP scheme */
(PID.TID 0000.0001)                   T
(PID.TID 0000.0001)     ;
(PID.TID 0000.0001) PTRACERS_ref = /* Reference vertical profile */
(PID.TID 0000.0001)    35 @  0.000000000000000E+00              /* K =  1: 35 */
(PID.TID 0000.0001)     ;
(PID.TID 0000.0001) PTRACERS_EvPrRn =/* tracer conc. in Evap. & Rain */
(PID.TID 0000.0001)                 1.234567000000000E+05
(PID.TID 0000.0001)     ;
(PID.TID 0000.0001)  -----------------------------------
(PID.TID 0000.0001)  tracer number :  221
(PID.TID 0000.0001) PTRACERS_names = /* Tracer short name */
(PID.TID 0000.0001)               'Chl12'
(PID.TID 0000.0001)     ;
(PID.TID 0000.0001) PTRACERS_long_names = /* Tracer long name */
(PID.TID 0000.0001)               ''
(PID.TID 0000.0001)     ;
(PID.TID 0000.0001) PTRACERS_ioLabel = /* tracer IO Label */
(PID.TID 0000.0001)               '2r'
(PID.TID 0000.0001)     ;
(PID.TID 0000.0001) PTRACERS_advScheme = /* Advection Scheme */
(PID.TID 0000.0001)                      33
(PID.TID 0000.0001)     ;
(PID.TID 0000.0001) PTRACERS_SOM_Advection = /* tracer uses SOM advection scheme */
(PID.TID 0000.0001)                   F
(PID.TID 0000.0001)     ;
(PID.TID 0000.0001) PTRACERS_ImplVertAdv = /* implicit vert. advection flag */
(PID.TID 0000.0001)                   F
(PID.TID 0000.0001)     ;
(PID.TID 0000.0001) PTRACERS_MultiDimAdv = /* tracer uses Multi-Dim advection */
(PID.TID 0000.0001)                   T
(PID.TID 0000.0001)     ;
(PID.TID 0000.0001) PTRACERS_AdamsBashGtr = /* apply AB on tracer tendency */
(PID.TID 0000.0001)                   F
(PID.TID 0000.0001)     ;
(PID.TID 0000.0001) PTRACERS_AdamsBash_Tr = /* apply AB on passive tracer */
(PID.TID 0000.0001)                   F
(PID.TID 0000.0001)     ;
(PID.TID 0000.0001) PTRACERS_diffKh = /* Laplacian Diffusivity */
(PID.TID 0000.0001)                 0.000000000000000E+00
(PID.TID 0000.0001)     ;
(PID.TID 0000.0001) PTRACERS_diffK4 = /* Biharmonic Diffusivity */
(PID.TID 0000.0001)                 0.000000000000000E+00
(PID.TID 0000.0001)     ;
(PID.TID 0000.0001) PTRACERS_diffKrNr = /* Vertical Diffusivity */
(PID.TID 0000.0001)    35 @  1.000000000000000E-05              /* K =  1: 35 */
(PID.TID 0000.0001)     ;
(PID.TID 0000.0001) PTRACERS_useGMRedi = /* apply GM-Redi */
(PID.TID 0000.0001)                   F
(PID.TID 0000.0001)     ;
(PID.TID 0000.0001) PTRACERS_useDWNSLP = /* apply DOWN-SLOPE Flow */
(PID.TID 0000.0001)                   F
(PID.TID 0000.0001)     ;
(PID.TID 0000.0001) PTRACERS_useKPP = /* apply KPP scheme */
(PID.TID 0000.0001)                   T
(PID.TID 0000.0001)     ;
(PID.TID 0000.0001) PTRACERS_ref = /* Reference vertical profile */
(PID.TID 0000.0001)    35 @  0.000000000000000E+00              /* K =  1: 35 */
(PID.TID 0000.0001)     ;
(PID.TID 0000.0001) PTRACERS_EvPrRn =/* tracer conc. in Evap. & Rain */
(PID.TID 0000.0001)                 1.234567000000000E+05
(PID.TID 0000.0001)     ;
(PID.TID 0000.0001)  -----------------------------------
(PID.TID 0000.0001)  tracer number :  222
(PID.TID 0000.0001) PTRACERS_names = /* Tracer short name */
(PID.TID 0000.0001)               'Chl13'
(PID.TID 0000.0001)     ;
(PID.TID 0000.0001) PTRACERS_long_names = /* Tracer long name */
(PID.TID 0000.0001)               ''
(PID.TID 0000.0001)     ;
(PID.TID 0000.0001) PTRACERS_ioLabel = /* tracer IO Label */
(PID.TID 0000.0001)               '2s'
(PID.TID 0000.0001)     ;
(PID.TID 0000.0001) PTRACERS_advScheme = /* Advection Scheme */
(PID.TID 0000.0001)                      33
(PID.TID 0000.0001)     ;
(PID.TID 0000.0001) PTRACERS_SOM_Advection = /* tracer uses SOM advection scheme */
(PID.TID 0000.0001)                   F
(PID.TID 0000.0001)     ;
(PID.TID 0000.0001) PTRACERS_ImplVertAdv = /* implicit vert. advection flag */
(PID.TID 0000.0001)                   F
(PID.TID 0000.0001)     ;
(PID.TID 0000.0001) PTRACERS_MultiDimAdv = /* tracer uses Multi-Dim advection */
(PID.TID 0000.0001)                   T
(PID.TID 0000.0001)     ;
(PID.TID 0000.0001) PTRACERS_AdamsBashGtr = /* apply AB on tracer tendency */
(PID.TID 0000.0001)                   F
(PID.TID 0000.0001)     ;
(PID.TID 0000.0001) PTRACERS_AdamsBash_Tr = /* apply AB on passive tracer */
(PID.TID 0000.0001)                   F
(PID.TID 0000.0001)     ;
(PID.TID 0000.0001) PTRACERS_diffKh = /* Laplacian Diffusivity */
(PID.TID 0000.0001)                 0.000000000000000E+00
(PID.TID 0000.0001)     ;
(PID.TID 0000.0001) PTRACERS_diffK4 = /* Biharmonic Diffusivity */
(PID.TID 0000.0001)                 0.000000000000000E+00
(PID.TID 0000.0001)     ;
(PID.TID 0000.0001) PTRACERS_diffKrNr = /* Vertical Diffusivity */
(PID.TID 0000.0001)    35 @  1.000000000000000E-05              /* K =  1: 35 */
(PID.TID 0000.0001)     ;
(PID.TID 0000.0001) PTRACERS_useGMRedi = /* apply GM-Redi */
(PID.TID 0000.0001)                   F
(PID.TID 0000.0001)     ;
(PID.TID 0000.0001) PTRACERS_useDWNSLP = /* apply DOWN-SLOPE Flow */
(PID.TID 0000.0001)                   F
(PID.TID 0000.0001)     ;
(PID.TID 0000.0001) PTRACERS_useKPP = /* apply KPP scheme */
(PID.TID 0000.0001)                   T
(PID.TID 0000.0001)     ;
(PID.TID 0000.0001) PTRACERS_ref = /* Reference vertical profile */
(PID.TID 0000.0001)    35 @  0.000000000000000E+00              /* K =  1: 35 */
(PID.TID 0000.0001)     ;
(PID.TID 0000.0001) PTRACERS_EvPrRn =/* tracer conc. in Evap. & Rain */
(PID.TID 0000.0001)                 1.234567000000000E+05
(PID.TID 0000.0001)     ;
(PID.TID 0000.0001)  -----------------------------------
(PID.TID 0000.0001)  tracer number :  223
(PID.TID 0000.0001) PTRACERS_names = /* Tracer short name */
(PID.TID 0000.0001)               'Chl14'
(PID.TID 0000.0001)     ;
(PID.TID 0000.0001) PTRACERS_long_names = /* Tracer long name */
(PID.TID 0000.0001)               ''
(PID.TID 0000.0001)     ;
(PID.TID 0000.0001) PTRACERS_ioLabel = /* tracer IO Label */
(PID.TID 0000.0001)               '2t'
(PID.TID 0000.0001)     ;
(PID.TID 0000.0001) PTRACERS_advScheme = /* Advection Scheme */
(PID.TID 0000.0001)                      33
(PID.TID 0000.0001)     ;
(PID.TID 0000.0001) PTRACERS_SOM_Advection = /* tracer uses SOM advection scheme */
(PID.TID 0000.0001)                   F
(PID.TID 0000.0001)     ;
(PID.TID 0000.0001) PTRACERS_ImplVertAdv = /* implicit vert. advection flag */
(PID.TID 0000.0001)                   F
(PID.TID 0000.0001)     ;
(PID.TID 0000.0001) PTRACERS_MultiDimAdv = /* tracer uses Multi-Dim advection */
(PID.TID 0000.0001)                   T
(PID.TID 0000.0001)     ;
(PID.TID 0000.0001) PTRACERS_AdamsBashGtr = /* apply AB on tracer tendency */
(PID.TID 0000.0001)                   F
(PID.TID 0000.0001)     ;
(PID.TID 0000.0001) PTRACERS_AdamsBash_Tr = /* apply AB on passive tracer */
(PID.TID 0000.0001)                   F
(PID.TID 0000.0001)     ;
(PID.TID 0000.0001) PTRACERS_diffKh = /* Laplacian Diffusivity */
(PID.TID 0000.0001)                 0.000000000000000E+00
(PID.TID 0000.0001)     ;
(PID.TID 0000.0001) PTRACERS_diffK4 = /* Biharmonic Diffusivity */
(PID.TID 0000.0001)                 0.000000000000000E+00
(PID.TID 0000.0001)     ;
(PID.TID 0000.0001) PTRACERS_diffKrNr = /* Vertical Diffusivity */
(PID.TID 0000.0001)    35 @  1.000000000000000E-05              /* K =  1: 35 */
(PID.TID 0000.0001)     ;
(PID.TID 0000.0001) PTRACERS_useGMRedi = /* apply GM-Redi */
(PID.TID 0000.0001)                   F
(PID.TID 0000.0001)     ;
(PID.TID 0000.0001) PTRACERS_useDWNSLP = /* apply DOWN-SLOPE Flow */
(PID.TID 0000.0001)                   F
(PID.TID 0000.0001)     ;
(PID.TID 0000.0001) PTRACERS_useKPP = /* apply KPP scheme */
(PID.TID 0000.0001)                   T
(PID.TID 0000.0001)     ;
(PID.TID 0000.0001) PTRACERS_ref = /* Reference vertical profile */
(PID.TID 0000.0001)    35 @  0.000000000000000E+00              /* K =  1: 35 */
(PID.TID 0000.0001)     ;
(PID.TID 0000.0001) PTRACERS_EvPrRn =/* tracer conc. in Evap. & Rain */
(PID.TID 0000.0001)                 1.234567000000000E+05
(PID.TID 0000.0001)     ;
(PID.TID 0000.0001)  -----------------------------------
(PID.TID 0000.0001)  tracer number :  224
(PID.TID 0000.0001) PTRACERS_names = /* Tracer short name */
(PID.TID 0000.0001)               'Chl15'
(PID.TID 0000.0001)     ;
(PID.TID 0000.0001) PTRACERS_long_names = /* Tracer long name */
(PID.TID 0000.0001)               ''
(PID.TID 0000.0001)     ;
(PID.TID 0000.0001) PTRACERS_ioLabel = /* tracer IO Label */
(PID.TID 0000.0001)               '2u'
(PID.TID 0000.0001)     ;
(PID.TID 0000.0001) PTRACERS_advScheme = /* Advection Scheme */
(PID.TID 0000.0001)                      33
(PID.TID 0000.0001)     ;
(PID.TID 0000.0001) PTRACERS_SOM_Advection = /* tracer uses SOM advection scheme */
(PID.TID 0000.0001)                   F
(PID.TID 0000.0001)     ;
(PID.TID 0000.0001) PTRACERS_ImplVertAdv = /* implicit vert. advection flag */
(PID.TID 0000.0001)                   F
(PID.TID 0000.0001)     ;
(PID.TID 0000.0001) PTRACERS_MultiDimAdv = /* tracer uses Multi-Dim advection */
(PID.TID 0000.0001)                   T
(PID.TID 0000.0001)     ;
(PID.TID 0000.0001) PTRACERS_AdamsBashGtr = /* apply AB on tracer tendency */
(PID.TID 0000.0001)                   F
(PID.TID 0000.0001)     ;
(PID.TID 0000.0001) PTRACERS_AdamsBash_Tr = /* apply AB on passive tracer */
(PID.TID 0000.0001)                   F
(PID.TID 0000.0001)     ;
(PID.TID 0000.0001) PTRACERS_diffKh = /* Laplacian Diffusivity */
(PID.TID 0000.0001)                 0.000000000000000E+00
(PID.TID 0000.0001)     ;
(PID.TID 0000.0001) PTRACERS_diffK4 = /* Biharmonic Diffusivity */
(PID.TID 0000.0001)                 0.000000000000000E+00
(PID.TID 0000.0001)     ;
(PID.TID 0000.0001) PTRACERS_diffKrNr = /* Vertical Diffusivity */
(PID.TID 0000.0001)    35 @  1.000000000000000E-05              /* K =  1: 35 */
(PID.TID 0000.0001)     ;
(PID.TID 0000.0001) PTRACERS_useGMRedi = /* apply GM-Redi */
(PID.TID 0000.0001)                   F
(PID.TID 0000.0001)     ;
(PID.TID 0000.0001) PTRACERS_useDWNSLP = /* apply DOWN-SLOPE Flow */
(PID.TID 0000.0001)                   F
(PID.TID 0000.0001)     ;
(PID.TID 0000.0001) PTRACERS_useKPP = /* apply KPP scheme */
(PID.TID 0000.0001)                   T
(PID.TID 0000.0001)     ;
(PID.TID 0000.0001) PTRACERS_ref = /* Reference vertical profile */
(PID.TID 0000.0001)    35 @  0.000000000000000E+00              /* K =  1: 35 */
(PID.TID 0000.0001)     ;
(PID.TID 0000.0001) PTRACERS_EvPrRn =/* tracer conc. in Evap. & Rain */
(PID.TID 0000.0001)                 1.234567000000000E+05
(PID.TID 0000.0001)     ;
(PID.TID 0000.0001)  -----------------------------------
(PID.TID 0000.0001)  tracer number :  225
(PID.TID 0000.0001) PTRACERS_names = /* Tracer short name */
(PID.TID 0000.0001)               'Chl16'
(PID.TID 0000.0001)     ;
(PID.TID 0000.0001) PTRACERS_long_names = /* Tracer long name */
(PID.TID 0000.0001)               ''
(PID.TID 0000.0001)     ;
(PID.TID 0000.0001) PTRACERS_ioLabel = /* tracer IO Label */
(PID.TID 0000.0001)               '2v'
(PID.TID 0000.0001)     ;
(PID.TID 0000.0001) PTRACERS_advScheme = /* Advection Scheme */
(PID.TID 0000.0001)                      33
(PID.TID 0000.0001)     ;
(PID.TID 0000.0001) PTRACERS_SOM_Advection = /* tracer uses SOM advection scheme */
(PID.TID 0000.0001)                   F
(PID.TID 0000.0001)     ;
(PID.TID 0000.0001) PTRACERS_ImplVertAdv = /* implicit vert. advection flag */
(PID.TID 0000.0001)                   F
(PID.TID 0000.0001)     ;
(PID.TID 0000.0001) PTRACERS_MultiDimAdv = /* tracer uses Multi-Dim advection */
(PID.TID 0000.0001)                   T
(PID.TID 0000.0001)     ;
(PID.TID 0000.0001) PTRACERS_AdamsBashGtr = /* apply AB on tracer tendency */
(PID.TID 0000.0001)                   F
(PID.TID 0000.0001)     ;
(PID.TID 0000.0001) PTRACERS_AdamsBash_Tr = /* apply AB on passive tracer */
(PID.TID 0000.0001)                   F
(PID.TID 0000.0001)     ;
(PID.TID 0000.0001) PTRACERS_diffKh = /* Laplacian Diffusivity */
(PID.TID 0000.0001)                 0.000000000000000E+00
(PID.TID 0000.0001)     ;
(PID.TID 0000.0001) PTRACERS_diffK4 = /* Biharmonic Diffusivity */
(PID.TID 0000.0001)                 0.000000000000000E+00
(PID.TID 0000.0001)     ;
(PID.TID 0000.0001) PTRACERS_diffKrNr = /* Vertical Diffusivity */
(PID.TID 0000.0001)    35 @  1.000000000000000E-05              /* K =  1: 35 */
(PID.TID 0000.0001)     ;
(PID.TID 0000.0001) PTRACERS_useGMRedi = /* apply GM-Redi */
(PID.TID 0000.0001)                   F
(PID.TID 0000.0001)     ;
(PID.TID 0000.0001) PTRACERS_useDWNSLP = /* apply DOWN-SLOPE Flow */
(PID.TID 0000.0001)                   F
(PID.TID 0000.0001)     ;
(PID.TID 0000.0001) PTRACERS_useKPP = /* apply KPP scheme */
(PID.TID 0000.0001)                   T
(PID.TID 0000.0001)     ;
(PID.TID 0000.0001) PTRACERS_ref = /* Reference vertical profile */
(PID.TID 0000.0001)    35 @  0.000000000000000E+00              /* K =  1: 35 */
(PID.TID 0000.0001)     ;
(PID.TID 0000.0001) PTRACERS_EvPrRn =/* tracer conc. in Evap. & Rain */
(PID.TID 0000.0001)                 1.234567000000000E+05
(PID.TID 0000.0001)     ;
(PID.TID 0000.0001)  -----------------------------------
(PID.TID 0000.0001)  tracer number :  226
(PID.TID 0000.0001) PTRACERS_names = /* Tracer short name */
(PID.TID 0000.0001)               'Chl17'
(PID.TID 0000.0001)     ;
(PID.TID 0000.0001) PTRACERS_long_names = /* Tracer long name */
(PID.TID 0000.0001)               ''
(PID.TID 0000.0001)     ;
(PID.TID 0000.0001) PTRACERS_ioLabel = /* tracer IO Label */
(PID.TID 0000.0001)               '2w'
(PID.TID 0000.0001)     ;
(PID.TID 0000.0001) PTRACERS_advScheme = /* Advection Scheme */
(PID.TID 0000.0001)                      33
(PID.TID 0000.0001)     ;
(PID.TID 0000.0001) PTRACERS_SOM_Advection = /* tracer uses SOM advection scheme */
(PID.TID 0000.0001)                   F
(PID.TID 0000.0001)     ;
(PID.TID 0000.0001) PTRACERS_ImplVertAdv = /* implicit vert. advection flag */
(PID.TID 0000.0001)                   F
(PID.TID 0000.0001)     ;
(PID.TID 0000.0001) PTRACERS_MultiDimAdv = /* tracer uses Multi-Dim advection */
(PID.TID 0000.0001)                   T
(PID.TID 0000.0001)     ;
(PID.TID 0000.0001) PTRACERS_AdamsBashGtr = /* apply AB on tracer tendency */
(PID.TID 0000.0001)                   F
(PID.TID 0000.0001)     ;
(PID.TID 0000.0001) PTRACERS_AdamsBash_Tr = /* apply AB on passive tracer */
(PID.TID 0000.0001)                   F
(PID.TID 0000.0001)     ;
(PID.TID 0000.0001) PTRACERS_diffKh = /* Laplacian Diffusivity */
(PID.TID 0000.0001)                 0.000000000000000E+00
(PID.TID 0000.0001)     ;
(PID.TID 0000.0001) PTRACERS_diffK4 = /* Biharmonic Diffusivity */
(PID.TID 0000.0001)                 0.000000000000000E+00
(PID.TID 0000.0001)     ;
(PID.TID 0000.0001) PTRACERS_diffKrNr = /* Vertical Diffusivity */
(PID.TID 0000.0001)    35 @  1.000000000000000E-05              /* K =  1: 35 */
(PID.TID 0000.0001)     ;
(PID.TID 0000.0001) PTRACERS_useGMRedi = /* apply GM-Redi */
(PID.TID 0000.0001)                   F
(PID.TID 0000.0001)     ;
(PID.TID 0000.0001) PTRACERS_useDWNSLP = /* apply DOWN-SLOPE Flow */
(PID.TID 0000.0001)                   F
(PID.TID 0000.0001)     ;
(PID.TID 0000.0001) PTRACERS_useKPP = /* apply KPP scheme */
(PID.TID 0000.0001)                   T
(PID.TID 0000.0001)     ;
(PID.TID 0000.0001) PTRACERS_ref = /* Reference vertical profile */
(PID.TID 0000.0001)    35 @  0.000000000000000E+00              /* K =  1: 35 */
(PID.TID 0000.0001)     ;
(PID.TID 0000.0001) PTRACERS_EvPrRn =/* tracer conc. in Evap. & Rain */
(PID.TID 0000.0001)                 1.234567000000000E+05
(PID.TID 0000.0001)     ;
(PID.TID 0000.0001)  -----------------------------------
(PID.TID 0000.0001)  tracer number :  227
(PID.TID 0000.0001) PTRACERS_names = /* Tracer short name */
(PID.TID 0000.0001)               'Chl18'
(PID.TID 0000.0001)     ;
(PID.TID 0000.0001) PTRACERS_long_names = /* Tracer long name */
(PID.TID 0000.0001)               ''
(PID.TID 0000.0001)     ;
(PID.TID 0000.0001) PTRACERS_ioLabel = /* tracer IO Label */
(PID.TID 0000.0001)               '2x'
(PID.TID 0000.0001)     ;
(PID.TID 0000.0001) PTRACERS_advScheme = /* Advection Scheme */
(PID.TID 0000.0001)                      33
(PID.TID 0000.0001)     ;
(PID.TID 0000.0001) PTRACERS_SOM_Advection = /* tracer uses SOM advection scheme */
(PID.TID 0000.0001)                   F
(PID.TID 0000.0001)     ;
(PID.TID 0000.0001) PTRACERS_ImplVertAdv = /* implicit vert. advection flag */
(PID.TID 0000.0001)                   F
(PID.TID 0000.0001)     ;
(PID.TID 0000.0001) PTRACERS_MultiDimAdv = /* tracer uses Multi-Dim advection */
(PID.TID 0000.0001)                   T
(PID.TID 0000.0001)     ;
(PID.TID 0000.0001) PTRACERS_AdamsBashGtr = /* apply AB on tracer tendency */
(PID.TID 0000.0001)                   F
(PID.TID 0000.0001)     ;
(PID.TID 0000.0001) PTRACERS_AdamsBash_Tr = /* apply AB on passive tracer */
(PID.TID 0000.0001)                   F
(PID.TID 0000.0001)     ;
(PID.TID 0000.0001) PTRACERS_diffKh = /* Laplacian Diffusivity */
(PID.TID 0000.0001)                 0.000000000000000E+00
(PID.TID 0000.0001)     ;
(PID.TID 0000.0001) PTRACERS_diffK4 = /* Biharmonic Diffusivity */
(PID.TID 0000.0001)                 0.000000000000000E+00
(PID.TID 0000.0001)     ;
(PID.TID 0000.0001) PTRACERS_diffKrNr = /* Vertical Diffusivity */
(PID.TID 0000.0001)    35 @  1.000000000000000E-05              /* K =  1: 35 */
(PID.TID 0000.0001)     ;
(PID.TID 0000.0001) PTRACERS_useGMRedi = /* apply GM-Redi */
(PID.TID 0000.0001)                   F
(PID.TID 0000.0001)     ;
(PID.TID 0000.0001) PTRACERS_useDWNSLP = /* apply DOWN-SLOPE Flow */
(PID.TID 0000.0001)                   F
(PID.TID 0000.0001)     ;
(PID.TID 0000.0001) PTRACERS_useKPP = /* apply KPP scheme */
(PID.TID 0000.0001)                   T
(PID.TID 0000.0001)     ;
(PID.TID 0000.0001) PTRACERS_ref = /* Reference vertical profile */
(PID.TID 0000.0001)    35 @  0.000000000000000E+00              /* K =  1: 35 */
(PID.TID 0000.0001)     ;
(PID.TID 0000.0001) PTRACERS_EvPrRn =/* tracer conc. in Evap. & Rain */
(PID.TID 0000.0001)                 1.234567000000000E+05
(PID.TID 0000.0001)     ;
(PID.TID 0000.0001)  -----------------------------------
(PID.TID 0000.0001)  tracer number :  228
(PID.TID 0000.0001) PTRACERS_names = /* Tracer short name */
(PID.TID 0000.0001)               'Chl19'
(PID.TID 0000.0001)     ;
(PID.TID 0000.0001) PTRACERS_long_names = /* Tracer long name */
(PID.TID 0000.0001)               ''
(PID.TID 0000.0001)     ;
(PID.TID 0000.0001) PTRACERS_ioLabel = /* tracer IO Label */
(PID.TID 0000.0001)               '2y'
(PID.TID 0000.0001)     ;
(PID.TID 0000.0001) PTRACERS_advScheme = /* Advection Scheme */
(PID.TID 0000.0001)                      33
(PID.TID 0000.0001)     ;
(PID.TID 0000.0001) PTRACERS_SOM_Advection = /* tracer uses SOM advection scheme */
(PID.TID 0000.0001)                   F
(PID.TID 0000.0001)     ;
(PID.TID 0000.0001) PTRACERS_ImplVertAdv = /* implicit vert. advection flag */
(PID.TID 0000.0001)                   F
(PID.TID 0000.0001)     ;
(PID.TID 0000.0001) PTRACERS_MultiDimAdv = /* tracer uses Multi-Dim advection */
(PID.TID 0000.0001)                   T
(PID.TID 0000.0001)     ;
(PID.TID 0000.0001) PTRACERS_AdamsBashGtr = /* apply AB on tracer tendency */
(PID.TID 0000.0001)                   F
(PID.TID 0000.0001)     ;
(PID.TID 0000.0001) PTRACERS_AdamsBash_Tr = /* apply AB on passive tracer */
(PID.TID 0000.0001)                   F
(PID.TID 0000.0001)     ;
(PID.TID 0000.0001) PTRACERS_diffKh = /* Laplacian Diffusivity */
(PID.TID 0000.0001)                 0.000000000000000E+00
(PID.TID 0000.0001)     ;
(PID.TID 0000.0001) PTRACERS_diffK4 = /* Biharmonic Diffusivity */
(PID.TID 0000.0001)                 0.000000000000000E+00
(PID.TID 0000.0001)     ;
(PID.TID 0000.0001) PTRACERS_diffKrNr = /* Vertical Diffusivity */
(PID.TID 0000.0001)    35 @  1.000000000000000E-05              /* K =  1: 35 */
(PID.TID 0000.0001)     ;
(PID.TID 0000.0001) PTRACERS_useGMRedi = /* apply GM-Redi */
(PID.TID 0000.0001)                   F
(PID.TID 0000.0001)     ;
(PID.TID 0000.0001) PTRACERS_useDWNSLP = /* apply DOWN-SLOPE Flow */
(PID.TID 0000.0001)                   F
(PID.TID 0000.0001)     ;
(PID.TID 0000.0001) PTRACERS_useKPP = /* apply KPP scheme */
(PID.TID 0000.0001)                   T
(PID.TID 0000.0001)     ;
(PID.TID 0000.0001) PTRACERS_ref = /* Reference vertical profile */
(PID.TID 0000.0001)    35 @  0.000000000000000E+00              /* K =  1: 35 */
(PID.TID 0000.0001)     ;
(PID.TID 0000.0001) PTRACERS_EvPrRn =/* tracer conc. in Evap. & Rain */
(PID.TID 0000.0001)                 1.234567000000000E+05
(PID.TID 0000.0001)     ;
(PID.TID 0000.0001)  -----------------------------------
(PID.TID 0000.0001)  tracer number :  229
(PID.TID 0000.0001) PTRACERS_names = /* Tracer short name */
(PID.TID 0000.0001)               'Chl20'
(PID.TID 0000.0001)     ;
(PID.TID 0000.0001) PTRACERS_long_names = /* Tracer long name */
(PID.TID 0000.0001)               ''
(PID.TID 0000.0001)     ;
(PID.TID 0000.0001) PTRACERS_ioLabel = /* tracer IO Label */
(PID.TID 0000.0001)               '2z'
(PID.TID 0000.0001)     ;
(PID.TID 0000.0001) PTRACERS_advScheme = /* Advection Scheme */
(PID.TID 0000.0001)                      33
(PID.TID 0000.0001)     ;
(PID.TID 0000.0001) PTRACERS_SOM_Advection = /* tracer uses SOM advection scheme */
(PID.TID 0000.0001)                   F
(PID.TID 0000.0001)     ;
(PID.TID 0000.0001) PTRACERS_ImplVertAdv = /* implicit vert. advection flag */
(PID.TID 0000.0001)                   F
(PID.TID 0000.0001)     ;
(PID.TID 0000.0001) PTRACERS_MultiDimAdv = /* tracer uses Multi-Dim advection */
(PID.TID 0000.0001)                   T
(PID.TID 0000.0001)     ;
(PID.TID 0000.0001) PTRACERS_AdamsBashGtr = /* apply AB on tracer tendency */
(PID.TID 0000.0001)                   F
(PID.TID 0000.0001)     ;
(PID.TID 0000.0001) PTRACERS_AdamsBash_Tr = /* apply AB on passive tracer */
(PID.TID 0000.0001)                   F
(PID.TID 0000.0001)     ;
(PID.TID 0000.0001) PTRACERS_diffKh = /* Laplacian Diffusivity */
(PID.TID 0000.0001)                 0.000000000000000E+00
(PID.TID 0000.0001)     ;
(PID.TID 0000.0001) PTRACERS_diffK4 = /* Biharmonic Diffusivity */
(PID.TID 0000.0001)                 0.000000000000000E+00
(PID.TID 0000.0001)     ;
(PID.TID 0000.0001) PTRACERS_diffKrNr = /* Vertical Diffusivity */
(PID.TID 0000.0001)    35 @  1.000000000000000E-05              /* K =  1: 35 */
(PID.TID 0000.0001)     ;
(PID.TID 0000.0001) PTRACERS_useGMRedi = /* apply GM-Redi */
(PID.TID 0000.0001)                   F
(PID.TID 0000.0001)     ;
(PID.TID 0000.0001) PTRACERS_useDWNSLP = /* apply DOWN-SLOPE Flow */
(PID.TID 0000.0001)                   F
(PID.TID 0000.0001)     ;
(PID.TID 0000.0001) PTRACERS_useKPP = /* apply KPP scheme */
(PID.TID 0000.0001)                   T
(PID.TID 0000.0001)     ;
(PID.TID 0000.0001) PTRACERS_ref = /* Reference vertical profile */
(PID.TID 0000.0001)    35 @  0.000000000000000E+00              /* K =  1: 35 */
(PID.TID 0000.0001)     ;
(PID.TID 0000.0001) PTRACERS_EvPrRn =/* tracer conc. in Evap. & Rain */
(PID.TID 0000.0001)                 1.234567000000000E+05
(PID.TID 0000.0001)     ;
(PID.TID 0000.0001)  -----------------------------------
(PID.TID 0000.0001)  tracer number :  230
(PID.TID 0000.0001) PTRACERS_names = /* Tracer short name */
(PID.TID 0000.0001)               'Chl21'
(PID.TID 0000.0001)     ;
(PID.TID 0000.0001) PTRACERS_long_names = /* Tracer long name */
(PID.TID 0000.0001)               ''
(PID.TID 0000.0001)     ;
(PID.TID 0000.0001) PTRACERS_ioLabel = /* tracer IO Label */
(PID.TID 0000.0001)               '2A'
(PID.TID 0000.0001)     ;
(PID.TID 0000.0001) PTRACERS_advScheme = /* Advection Scheme */
(PID.TID 0000.0001)                      33
(PID.TID 0000.0001)     ;
(PID.TID 0000.0001) PTRACERS_SOM_Advection = /* tracer uses SOM advection scheme */
(PID.TID 0000.0001)                   F
(PID.TID 0000.0001)     ;
(PID.TID 0000.0001) PTRACERS_ImplVertAdv = /* implicit vert. advection flag */
(PID.TID 0000.0001)                   F
(PID.TID 0000.0001)     ;
(PID.TID 0000.0001) PTRACERS_MultiDimAdv = /* tracer uses Multi-Dim advection */
(PID.TID 0000.0001)                   T
(PID.TID 0000.0001)     ;
(PID.TID 0000.0001) PTRACERS_AdamsBashGtr = /* apply AB on tracer tendency */
(PID.TID 0000.0001)                   F
(PID.TID 0000.0001)     ;
(PID.TID 0000.0001) PTRACERS_AdamsBash_Tr = /* apply AB on passive tracer */
(PID.TID 0000.0001)                   F
(PID.TID 0000.0001)     ;
(PID.TID 0000.0001) PTRACERS_diffKh = /* Laplacian Diffusivity */
(PID.TID 0000.0001)                 0.000000000000000E+00
(PID.TID 0000.0001)     ;
(PID.TID 0000.0001) PTRACERS_diffK4 = /* Biharmonic Diffusivity */
(PID.TID 0000.0001)                 0.000000000000000E+00
(PID.TID 0000.0001)     ;
(PID.TID 0000.0001) PTRACERS_diffKrNr = /* Vertical Diffusivity */
(PID.TID 0000.0001)    35 @  1.000000000000000E-05              /* K =  1: 35 */
(PID.TID 0000.0001)     ;
(PID.TID 0000.0001) PTRACERS_useGMRedi = /* apply GM-Redi */
(PID.TID 0000.0001)                   F
(PID.TID 0000.0001)     ;
(PID.TID 0000.0001) PTRACERS_useDWNSLP = /* apply DOWN-SLOPE Flow */
(PID.TID 0000.0001)                   F
(PID.TID 0000.0001)     ;
(PID.TID 0000.0001) PTRACERS_useKPP = /* apply KPP scheme */
(PID.TID 0000.0001)                   T
(PID.TID 0000.0001)     ;
(PID.TID 0000.0001) PTRACERS_ref = /* Reference vertical profile */
(PID.TID 0000.0001)    35 @  0.000000000000000E+00              /* K =  1: 35 */
(PID.TID 0000.0001)     ;
(PID.TID 0000.0001) PTRACERS_EvPrRn =/* tracer conc. in Evap. & Rain */
(PID.TID 0000.0001)                 1.234567000000000E+05
(PID.TID 0000.0001)     ;
(PID.TID 0000.0001)  -----------------------------------
(PID.TID 0000.0001)  tracer number :  231
(PID.TID 0000.0001) PTRACERS_names = /* Tracer short name */
(PID.TID 0000.0001)               'Chl22'
(PID.TID 0000.0001)     ;
(PID.TID 0000.0001) PTRACERS_long_names = /* Tracer long name */
(PID.TID 0000.0001)               ''
(PID.TID 0000.0001)     ;
(PID.TID 0000.0001) PTRACERS_ioLabel = /* tracer IO Label */
(PID.TID 0000.0001)               '2B'
(PID.TID 0000.0001)     ;
(PID.TID 0000.0001) PTRACERS_advScheme = /* Advection Scheme */
(PID.TID 0000.0001)                      33
(PID.TID 0000.0001)     ;
(PID.TID 0000.0001) PTRACERS_SOM_Advection = /* tracer uses SOM advection scheme */
(PID.TID 0000.0001)                   F
(PID.TID 0000.0001)     ;
(PID.TID 0000.0001) PTRACERS_ImplVertAdv = /* implicit vert. advection flag */
(PID.TID 0000.0001)                   F
(PID.TID 0000.0001)     ;
(PID.TID 0000.0001) PTRACERS_MultiDimAdv = /* tracer uses Multi-Dim advection */
(PID.TID 0000.0001)                   T
(PID.TID 0000.0001)     ;
(PID.TID 0000.0001) PTRACERS_AdamsBashGtr = /* apply AB on tracer tendency */
(PID.TID 0000.0001)                   F
(PID.TID 0000.0001)     ;
(PID.TID 0000.0001) PTRACERS_AdamsBash_Tr = /* apply AB on passive tracer */
(PID.TID 0000.0001)                   F
(PID.TID 0000.0001)     ;
(PID.TID 0000.0001) PTRACERS_diffKh = /* Laplacian Diffusivity */
(PID.TID 0000.0001)                 0.000000000000000E+00
(PID.TID 0000.0001)     ;
(PID.TID 0000.0001) PTRACERS_diffK4 = /* Biharmonic Diffusivity */
(PID.TID 0000.0001)                 0.000000000000000E+00
(PID.TID 0000.0001)     ;
(PID.TID 0000.0001) PTRACERS_diffKrNr = /* Vertical Diffusivity */
(PID.TID 0000.0001)    35 @  1.000000000000000E-05              /* K =  1: 35 */
(PID.TID 0000.0001)     ;
(PID.TID 0000.0001) PTRACERS_useGMRedi = /* apply GM-Redi */
(PID.TID 0000.0001)                   F
(PID.TID 0000.0001)     ;
(PID.TID 0000.0001) PTRACERS_useDWNSLP = /* apply DOWN-SLOPE Flow */
(PID.TID 0000.0001)                   F
(PID.TID 0000.0001)     ;
(PID.TID 0000.0001) PTRACERS_useKPP = /* apply KPP scheme */
(PID.TID 0000.0001)                   T
(PID.TID 0000.0001)     ;
(PID.TID 0000.0001) PTRACERS_ref = /* Reference vertical profile */
(PID.TID 0000.0001)    35 @  0.000000000000000E+00              /* K =  1: 35 */
(PID.TID 0000.0001)     ;
(PID.TID 0000.0001) PTRACERS_EvPrRn =/* tracer conc. in Evap. & Rain */
(PID.TID 0000.0001)                 1.234567000000000E+05
(PID.TID 0000.0001)     ;
(PID.TID 0000.0001)  -----------------------------------
(PID.TID 0000.0001)  tracer number :  232
(PID.TID 0000.0001) PTRACERS_names = /* Tracer short name */
(PID.TID 0000.0001)               'Chl23'
(PID.TID 0000.0001)     ;
(PID.TID 0000.0001) PTRACERS_long_names = /* Tracer long name */
(PID.TID 0000.0001)               ''
(PID.TID 0000.0001)     ;
(PID.TID 0000.0001) PTRACERS_ioLabel = /* tracer IO Label */
(PID.TID 0000.0001)               '2C'
(PID.TID 0000.0001)     ;
(PID.TID 0000.0001) PTRACERS_advScheme = /* Advection Scheme */
(PID.TID 0000.0001)                      33
(PID.TID 0000.0001)     ;
(PID.TID 0000.0001) PTRACERS_SOM_Advection = /* tracer uses SOM advection scheme */
(PID.TID 0000.0001)                   F
(PID.TID 0000.0001)     ;
(PID.TID 0000.0001) PTRACERS_ImplVertAdv = /* implicit vert. advection flag */
(PID.TID 0000.0001)                   F
(PID.TID 0000.0001)     ;
(PID.TID 0000.0001) PTRACERS_MultiDimAdv = /* tracer uses Multi-Dim advection */
(PID.TID 0000.0001)                   T
(PID.TID 0000.0001)     ;
(PID.TID 0000.0001) PTRACERS_AdamsBashGtr = /* apply AB on tracer tendency */
(PID.TID 0000.0001)                   F
(PID.TID 0000.0001)     ;
(PID.TID 0000.0001) PTRACERS_AdamsBash_Tr = /* apply AB on passive tracer */
(PID.TID 0000.0001)                   F
(PID.TID 0000.0001)     ;
(PID.TID 0000.0001) PTRACERS_diffKh = /* Laplacian Diffusivity */
(PID.TID 0000.0001)                 0.000000000000000E+00
(PID.TID 0000.0001)     ;
(PID.TID 0000.0001) PTRACERS_diffK4 = /* Biharmonic Diffusivity */
(PID.TID 0000.0001)                 0.000000000000000E+00
(PID.TID 0000.0001)     ;
(PID.TID 0000.0001) PTRACERS_diffKrNr = /* Vertical Diffusivity */
(PID.TID 0000.0001)    35 @  1.000000000000000E-05              /* K =  1: 35 */
(PID.TID 0000.0001)     ;
(PID.TID 0000.0001) PTRACERS_useGMRedi = /* apply GM-Redi */
(PID.TID 0000.0001)                   F
(PID.TID 0000.0001)     ;
(PID.TID 0000.0001) PTRACERS_useDWNSLP = /* apply DOWN-SLOPE Flow */
(PID.TID 0000.0001)                   F
(PID.TID 0000.0001)     ;
(PID.TID 0000.0001) PTRACERS_useKPP = /* apply KPP scheme */
(PID.TID 0000.0001)                   T
(PID.TID 0000.0001)     ;
(PID.TID 0000.0001) PTRACERS_ref = /* Reference vertical profile */
(PID.TID 0000.0001)    35 @  0.000000000000000E+00              /* K =  1: 35 */
(PID.TID 0000.0001)     ;
(PID.TID 0000.0001) PTRACERS_EvPrRn =/* tracer conc. in Evap. & Rain */
(PID.TID 0000.0001)                 1.234567000000000E+05
(PID.TID 0000.0001)     ;
(PID.TID 0000.0001)  -----------------------------------
(PID.TID 0000.0001)  tracer number :  233
(PID.TID 0000.0001) PTRACERS_names = /* Tracer short name */
(PID.TID 0000.0001)               'Chl24'
(PID.TID 0000.0001)     ;
(PID.TID 0000.0001) PTRACERS_long_names = /* Tracer long name */
(PID.TID 0000.0001)               ''
(PID.TID 0000.0001)     ;
(PID.TID 0000.0001) PTRACERS_ioLabel = /* tracer IO Label */
(PID.TID 0000.0001)               '2D'
(PID.TID 0000.0001)     ;
(PID.TID 0000.0001) PTRACERS_advScheme = /* Advection Scheme */
(PID.TID 0000.0001)                      33
(PID.TID 0000.0001)     ;
(PID.TID 0000.0001) PTRACERS_SOM_Advection = /* tracer uses SOM advection scheme */
(PID.TID 0000.0001)                   F
(PID.TID 0000.0001)     ;
(PID.TID 0000.0001) PTRACERS_ImplVertAdv = /* implicit vert. advection flag */
(PID.TID 0000.0001)                   F
(PID.TID 0000.0001)     ;
(PID.TID 0000.0001) PTRACERS_MultiDimAdv = /* tracer uses Multi-Dim advection */
(PID.TID 0000.0001)                   T
(PID.TID 0000.0001)     ;
(PID.TID 0000.0001) PTRACERS_AdamsBashGtr = /* apply AB on tracer tendency */
(PID.TID 0000.0001)                   F
(PID.TID 0000.0001)     ;
(PID.TID 0000.0001) PTRACERS_AdamsBash_Tr = /* apply AB on passive tracer */
(PID.TID 0000.0001)                   F
(PID.TID 0000.0001)     ;
(PID.TID 0000.0001) PTRACERS_diffKh = /* Laplacian Diffusivity */
(PID.TID 0000.0001)                 0.000000000000000E+00
(PID.TID 0000.0001)     ;
(PID.TID 0000.0001) PTRACERS_diffK4 = /* Biharmonic Diffusivity */
(PID.TID 0000.0001)                 0.000000000000000E+00
(PID.TID 0000.0001)     ;
(PID.TID 0000.0001) PTRACERS_diffKrNr = /* Vertical Diffusivity */
(PID.TID 0000.0001)    35 @  1.000000000000000E-05              /* K =  1: 35 */
(PID.TID 0000.0001)     ;
(PID.TID 0000.0001) PTRACERS_useGMRedi = /* apply GM-Redi */
(PID.TID 0000.0001)                   F
(PID.TID 0000.0001)     ;
(PID.TID 0000.0001) PTRACERS_useDWNSLP = /* apply DOWN-SLOPE Flow */
(PID.TID 0000.0001)                   F
(PID.TID 0000.0001)     ;
(PID.TID 0000.0001) PTRACERS_useKPP = /* apply KPP scheme */
(PID.TID 0000.0001)                   T
(PID.TID 0000.0001)     ;
(PID.TID 0000.0001) PTRACERS_ref = /* Reference vertical profile */
(PID.TID 0000.0001)    35 @  0.000000000000000E+00              /* K =  1: 35 */
(PID.TID 0000.0001)     ;
(PID.TID 0000.0001) PTRACERS_EvPrRn =/* tracer conc. in Evap. & Rain */
(PID.TID 0000.0001)                 1.234567000000000E+05
(PID.TID 0000.0001)     ;
(PID.TID 0000.0001)  -----------------------------------
(PID.TID 0000.0001) GCHEM_CHECK: #define ALLOW_GCHEM
(PID.TID 0000.0001) GUD_CHECK: #define ALLOW_GUD
(PID.TID 0000.0001) GUD_CHECK: iPtr gud   PTRACERS_names
(PID.TID 0000.0001) GUD_CHECK:    1 DIC      DIC
(PID.TID 0000.0001) GUD_CHECK:    2 NH4      NH4
(PID.TID 0000.0001) GUD_CHECK:    3 NO2      NO2
(PID.TID 0000.0001) GUD_CHECK:    4 NO3      NO3
(PID.TID 0000.0001) GUD_CHECK:    5 PO4      PO4
(PID.TID 0000.0001) GUD_CHECK:    6 SiO2     SiO2
(PID.TID 0000.0001) GUD_CHECK:    7 FeT      FeT
(PID.TID 0000.0001) GUD_CHECK:    8 DOC      DOC
(PID.TID 0000.0001) GUD_CHECK:    9 DON      DON
(PID.TID 0000.0001) GUD_CHECK:   10 DOP      DOP
(PID.TID 0000.0001) GUD_CHECK:   11 DOFe     DOFe
(PID.TID 0000.0001) GUD_CHECK:   12 POC      POC
(PID.TID 0000.0001) GUD_CHECK:   13 PON      PON
(PID.TID 0000.0001) GUD_CHECK:   14 POP      POP
(PID.TID 0000.0001) GUD_CHECK:   15 POSi     POSi
(PID.TID 0000.0001) GUD_CHECK:   16 POFe     POFe
(PID.TID 0000.0001) GUD_CHECK:   17 PIC      PIC
(PID.TID 0000.0001) GUD_CHECK:   18 ALK      ALK
(PID.TID 0000.0001) GUD_CHECK:   19 O2       O2
(PID.TID 0000.0001) GUD_CHECK:   20 c    (1) c01
(PID.TID 0000.0001) GUD_CHECK:   21 c    (2) c02
(PID.TID 0000.0001) GUD_CHECK:   22 c    (3) c03
(PID.TID 0000.0001) GUD_CHECK:   23 c    (4) c04
(PID.TID 0000.0001) GUD_CHECK:   24 c    (5) c05
(PID.TID 0000.0001) GUD_CHECK:   25 c    (6) c06
(PID.TID 0000.0001) GUD_CHECK:   26 c    (7) c07
(PID.TID 0000.0001) GUD_CHECK:   27 c    (8) c08
(PID.TID 0000.0001) GUD_CHECK:   28 c    (9) c09
(PID.TID 0000.0001) GUD_CHECK:   29 c    (*) c10
(PID.TID 0000.0001) GUD_CHECK:   30 c    (*) c11
(PID.TID 0000.0001) GUD_CHECK:   31 c    (*) c12
(PID.TID 0000.0001) GUD_CHECK:   32 c    (*) c13
(PID.TID 0000.0001) GUD_CHECK:   33 c    (*) c14
(PID.TID 0000.0001) GUD_CHECK:   34 c    (*) c15
(PID.TID 0000.0001) GUD_CHECK:   35 c    (*) c16
(PID.TID 0000.0001) GUD_CHECK:   36 c    (*) c17
(PID.TID 0000.0001) GUD_CHECK:   37 c    (*) c18
(PID.TID 0000.0001) GUD_CHECK:   38 c    (*) c19
(PID.TID 0000.0001) GUD_CHECK:   39 c    (*) c20
(PID.TID 0000.0001) GUD_CHECK:   40 c    (*) c21
(PID.TID 0000.0001) GUD_CHECK:   41 c    (*) c22
(PID.TID 0000.0001) GUD_CHECK:   42 c    (*) c23
(PID.TID 0000.0001) GUD_CHECK:   43 c    (*) c24
(PID.TID 0000.0001) GUD_CHECK:   44 c    (*) c25
(PID.TID 0000.0001) GUD_CHECK:   45 c    (*) c26
(PID.TID 0000.0001) GUD_CHECK:   46 c    (*) c27
(PID.TID 0000.0001) GUD_CHECK:   47 c    (*) c28
(PID.TID 0000.0001) GUD_CHECK:   48 c    (*) c29
(PID.TID 0000.0001) GUD_CHECK:   49 c    (*) c30
(PID.TID 0000.0001) GUD_CHECK:   50 c    (*) c31
(PID.TID 0000.0001) GUD_CHECK:   51 c    (*) c32
(PID.TID 0000.0001) GUD_CHECK:   52 c    (*) c33
(PID.TID 0000.0001) GUD_CHECK:   53 c    (*) c34
(PID.TID 0000.0001) GUD_CHECK:   54 c    (*) c35
(PID.TID 0000.0001) GUD_CHECK:   55 c    (*) c36
(PID.TID 0000.0001) GUD_CHECK:   56 c    (*) c37
(PID.TID 0000.0001) GUD_CHECK:   57 c    (*) c38
(PID.TID 0000.0001) GUD_CHECK:   58 n    (1) n01
(PID.TID 0000.0001) GUD_CHECK:   59 n    (2) n02
(PID.TID 0000.0001) GUD_CHECK:   60 n    (3) n03
(PID.TID 0000.0001) GUD_CHECK:   61 n    (4) n04
(PID.TID 0000.0001) GUD_CHECK:   62 n    (5) n05
(PID.TID 0000.0001) GUD_CHECK:   63 n    (6) n06
(PID.TID 0000.0001) GUD_CHECK:   64 n    (7) n07
(PID.TID 0000.0001) GUD_CHECK:   65 n    (8) n08
(PID.TID 0000.0001) GUD_CHECK:   66 n    (9) n09
(PID.TID 0000.0001) GUD_CHECK:   67 n    (*) n10
(PID.TID 0000.0001) GUD_CHECK:   68 n    (*) n11
(PID.TID 0000.0001) GUD_CHECK:   69 n    (*) n12
(PID.TID 0000.0001) GUD_CHECK:   70 n    (*) n13
(PID.TID 0000.0001) GUD_CHECK:   71 n    (*) n14
(PID.TID 0000.0001) GUD_CHECK:   72 n    (*) n15
(PID.TID 0000.0001) GUD_CHECK:   73 n    (*) n16
(PID.TID 0000.0001) GUD_CHECK:   74 n    (*) n17
(PID.TID 0000.0001) GUD_CHECK:   75 n    (*) n18
(PID.TID 0000.0001) GUD_CHECK:   76 n    (*) n19
(PID.TID 0000.0001) GUD_CHECK:   77 n    (*) n20
(PID.TID 0000.0001) GUD_CHECK:   78 n    (*) n21
(PID.TID 0000.0001) GUD_CHECK:   79 n    (*) n22
(PID.TID 0000.0001) GUD_CHECK:   80 n    (*) n23
(PID.TID 0000.0001) GUD_CHECK:   81 n    (*) n24
(PID.TID 0000.0001) GUD_CHECK:   82 n    (*) n25
(PID.TID 0000.0001) GUD_CHECK:   83 n    (*) n26
(PID.TID 0000.0001) GUD_CHECK:   84 n    (*) n27
(PID.TID 0000.0001) GUD_CHECK:   85 n    (*) n28
(PID.TID 0000.0001) GUD_CHECK:   86 n    (*) n29
(PID.TID 0000.0001) GUD_CHECK:   87 n    (*) n30
(PID.TID 0000.0001) GUD_CHECK:   88 n    (*) n31
(PID.TID 0000.0001) GUD_CHECK:   89 n    (*) n32
(PID.TID 0000.0001) GUD_CHECK:   90 n    (*) n33
(PID.TID 0000.0001) GUD_CHECK:   91 n    (*) n34
(PID.TID 0000.0001) GUD_CHECK:   92 n    (*) n35
(PID.TID 0000.0001) GUD_CHECK:   93 n    (*) n36
(PID.TID 0000.0001) GUD_CHECK:   94 n    (*) n37
(PID.TID 0000.0001) GUD_CHECK:   95 n    (*) n38
(PID.TID 0000.0001) GUD_CHECK:   96 p    (1) p01
(PID.TID 0000.0001) GUD_CHECK:   97 p    (2) p02
(PID.TID 0000.0001) GUD_CHECK:   98 p    (3) p03
(PID.TID 0000.0001) GUD_CHECK:   99 p    (4) p04
(PID.TID 0000.0001) GUD_CHECK:  100 p    (5) p05
(PID.TID 0000.0001) GUD_CHECK:  101 p    (6) p06
(PID.TID 0000.0001) GUD_CHECK:  102 p    (7) p07
(PID.TID 0000.0001) GUD_CHECK:  103 p    (8) p08
(PID.TID 0000.0001) GUD_CHECK:  104 p    (9) p09
(PID.TID 0000.0001) GUD_CHECK:  105 p    (*) p10
(PID.TID 0000.0001) GUD_CHECK:  106 p    (*) p11
(PID.TID 0000.0001) GUD_CHECK:  107 p    (*) p12
(PID.TID 0000.0001) GUD_CHECK:  108 p    (*) p13
(PID.TID 0000.0001) GUD_CHECK:  109 p    (*) p14
(PID.TID 0000.0001) GUD_CHECK:  110 p    (*) p15
(PID.TID 0000.0001) GUD_CHECK:  111 p    (*) p16
(PID.TID 0000.0001) GUD_CHECK:  112 p    (*) p17
(PID.TID 0000.0001) GUD_CHECK:  113 p    (*) p18
(PID.TID 0000.0001) GUD_CHECK:  114 p    (*) p19
(PID.TID 0000.0001) GUD_CHECK:  115 p    (*) p20
(PID.TID 0000.0001) GUD_CHECK:  116 p    (*) p21
(PID.TID 0000.0001) GUD_CHECK:  117 p    (*) p22
(PID.TID 0000.0001) GUD_CHECK:  118 p    (*) p23
(PID.TID 0000.0001) GUD_CHECK:  119 p    (*) p24
(PID.TID 0000.0001) GUD_CHECK:  120 p    (*) p25
(PID.TID 0000.0001) GUD_CHECK:  121 p    (*) p26
(PID.TID 0000.0001) GUD_CHECK:  122 p    (*) p27
(PID.TID 0000.0001) GUD_CHECK:  123 p    (*) p28
(PID.TID 0000.0001) GUD_CHECK:  124 p    (*) p29
(PID.TID 0000.0001) GUD_CHECK:  125 p    (*) p30
(PID.TID 0000.0001) GUD_CHECK:  126 p    (*) p31
(PID.TID 0000.0001) GUD_CHECK:  127 p    (*) p32
(PID.TID 0000.0001) GUD_CHECK:  128 p    (*) p33
(PID.TID 0000.0001) GUD_CHECK:  129 p    (*) p34
(PID.TID 0000.0001) GUD_CHECK:  130 p    (*) p35
(PID.TID 0000.0001) GUD_CHECK:  131 p    (*) p36
(PID.TID 0000.0001) GUD_CHECK:  132 p    (*) p37
(PID.TID 0000.0001) GUD_CHECK:  133 p    (*) p38
(PID.TID 0000.0001) GUD_CHECK:  134 fe   (1) fe01
(PID.TID 0000.0001) GUD_CHECK:  135 fe   (2) fe02
(PID.TID 0000.0001) GUD_CHECK:  136 fe   (3) fe03
(PID.TID 0000.0001) GUD_CHECK:  137 fe   (4) fe04
(PID.TID 0000.0001) GUD_CHECK:  138 fe   (5) fe05
(PID.TID 0000.0001) GUD_CHECK:  139 fe   (6) fe06
(PID.TID 0000.0001) GUD_CHECK:  140 fe   (7) fe07
(PID.TID 0000.0001) GUD_CHECK:  141 fe   (8) fe08
(PID.TID 0000.0001) GUD_CHECK:  142 fe   (9) fe09
(PID.TID 0000.0001) GUD_CHECK:  143 fe   (*) fe10
(PID.TID 0000.0001) GUD_CHECK:  144 fe   (*) fe11
(PID.TID 0000.0001) GUD_CHECK:  145 fe   (*) fe12
(PID.TID 0000.0001) GUD_CHECK:  146 fe   (*) fe13
(PID.TID 0000.0001) GUD_CHECK:  147 fe   (*) fe14
(PID.TID 0000.0001) GUD_CHECK:  148 fe   (*) fe15
(PID.TID 0000.0001) GUD_CHECK:  149 fe   (*) fe16
(PID.TID 0000.0001) GUD_CHECK:  150 fe   (*) fe17
(PID.TID 0000.0001) GUD_CHECK:  151 fe   (*) fe18
(PID.TID 0000.0001) GUD_CHECK:  152 fe   (*) fe19
(PID.TID 0000.0001) GUD_CHECK:  153 fe   (*) fe20
(PID.TID 0000.0001) GUD_CHECK:  154 fe   (*) fe21
(PID.TID 0000.0001) GUD_CHECK:  155 fe   (*) fe22
(PID.TID 0000.0001) GUD_CHECK:  156 fe   (*) fe23
(PID.TID 0000.0001) GUD_CHECK:  157 fe   (*) fe24
(PID.TID 0000.0001) GUD_CHECK:  158 fe   (*) fe25
(PID.TID 0000.0001) GUD_CHECK:  159 fe   (*) fe26
(PID.TID 0000.0001) GUD_CHECK:  160 fe   (*) fe27
(PID.TID 0000.0001) GUD_CHECK:  161 fe   (*) fe28
(PID.TID 0000.0001) GUD_CHECK:  162 fe   (*) fe29
(PID.TID 0000.0001) GUD_CHECK:  163 fe   (*) fe30
(PID.TID 0000.0001) GUD_CHECK:  164 fe   (*) fe31
(PID.TID 0000.0001) GUD_CHECK:  165 fe   (*) fe32
(PID.TID 0000.0001) GUD_CHECK:  166 fe   (*) fe33
(PID.TID 0000.0001) GUD_CHECK:  167 fe   (*) fe34
(PID.TID 0000.0001) GUD_CHECK:  168 fe   (*) fe35
(PID.TID 0000.0001) GUD_CHECK:  169 fe   (*) fe36
(PID.TID 0000.0001) GUD_CHECK:  170 fe   (*) fe37
(PID.TID 0000.0001) GUD_CHECK:  171 fe   (*) fe38
(PID.TID 0000.0001) GUD_CHECK:  172 si   (1) si01
(PID.TID 0000.0001) GUD_CHECK:  173 si   (2) si02
(PID.TID 0000.0001) GUD_CHECK:  174 si   (3) si03
(PID.TID 0000.0001) GUD_CHECK:  175 si   (4) si04
(PID.TID 0000.0001) GUD_CHECK:  176 si   (5) si05
(PID.TID 0000.0001) GUD_CHECK:  177 si   (6) si06
(PID.TID 0000.0001) GUD_CHECK:  178 si   (7) si07
(PID.TID 0000.0001) GUD_CHECK:  179 si   (8) si08
(PID.TID 0000.0001) GUD_CHECK:  180 si   (9) si09
(PID.TID 0000.0001) GUD_CHECK:  181 si   (*) si10
(PID.TID 0000.0001) GUD_CHECK:  182 si   (*) si11
(PID.TID 0000.0001) GUD_CHECK:  183 si   (*) si12
(PID.TID 0000.0001) GUD_CHECK:  184 si   (*) si13
(PID.TID 0000.0001) GUD_CHECK:  185 si   (*) si14
(PID.TID 0000.0001) GUD_CHECK:  186 si   (*) si15
(PID.TID 0000.0001) GUD_CHECK:  187 si   (*) si16
(PID.TID 0000.0001) GUD_CHECK:  188 si   (*) si17
(PID.TID 0000.0001) GUD_CHECK:  189 si   (*) si18
(PID.TID 0000.0001) GUD_CHECK:  190 si   (*) si19
(PID.TID 0000.0001) GUD_CHECK:  191 si   (*) si20
(PID.TID 0000.0001) GUD_CHECK:  192 si   (*) si21
(PID.TID 0000.0001) GUD_CHECK:  193 si   (*) si22
(PID.TID 0000.0001) GUD_CHECK:  194 si   (*) si23
(PID.TID 0000.0001) GUD_CHECK:  195 si   (*) si24
(PID.TID 0000.0001) GUD_CHECK:  196 si   (*) si25
(PID.TID 0000.0001) GUD_CHECK:  197 si   (*) si26
(PID.TID 0000.0001) GUD_CHECK:  198 si   (*) si27
(PID.TID 0000.0001) GUD_CHECK:  199 si   (*) si28
(PID.TID 0000.0001) GUD_CHECK:  200 si   (*) si29
(PID.TID 0000.0001) GUD_CHECK:  201 si   (*) si30
(PID.TID 0000.0001) GUD_CHECK:  202 si   (*) si31
(PID.TID 0000.0001) GUD_CHECK:  203 si   (*) si32
(PID.TID 0000.0001) GUD_CHECK:  204 si   (*) si33
(PID.TID 0000.0001) GUD_CHECK:  205 si   (*) si34
(PID.TID 0000.0001) GUD_CHECK:  206 si   (*) si35
(PID.TID 0000.0001) GUD_CHECK:  207 si   (*) si36
(PID.TID 0000.0001) GUD_CHECK:  208 si   (*) si37
(PID.TID 0000.0001) GUD_CHECK:  209 si   (*) si38
(PID.TID 0000.0001) GUD_CHECK:  210 Chl  (1) Chl01
(PID.TID 0000.0001) GUD_CHECK:  211 Chl  (2) Chl02
(PID.TID 0000.0001) GUD_CHECK:  212 Chl  (3) Chl03
(PID.TID 0000.0001) GUD_CHECK:  213 Chl  (4) Chl04
(PID.TID 0000.0001) GUD_CHECK:  214 Chl  (5) Chl05
(PID.TID 0000.0001) GUD_CHECK:  215 Chl  (6) Chl06
(PID.TID 0000.0001) GUD_CHECK:  216 Chl  (7) Chl07
(PID.TID 0000.0001) GUD_CHECK:  217 Chl  (8) Chl08
(PID.TID 0000.0001) GUD_CHECK:  218 Chl  (9) Chl09
(PID.TID 0000.0001) GUD_CHECK:  219 Chl  (*) Chl10
(PID.TID 0000.0001) GUD_CHECK:  220 Chl  (*) Chl11
(PID.TID 0000.0001) GUD_CHECK:  221 Chl  (*) Chl12
(PID.TID 0000.0001) GUD_CHECK:  222 Chl  (*) Chl13
(PID.TID 0000.0001) GUD_CHECK:  223 Chl  (*) Chl14
(PID.TID 0000.0001) GUD_CHECK:  224 Chl  (*) Chl15
(PID.TID 0000.0001) GUD_CHECK:  225 Chl  (*) Chl16
(PID.TID 0000.0001) GUD_CHECK:  226 Chl  (*) Chl17
(PID.TID 0000.0001) GUD_CHECK:  227 Chl  (*) Chl18
(PID.TID 0000.0001) GUD_CHECK:  228 Chl  (*) Chl19
(PID.TID 0000.0001) GUD_CHECK:  229 Chl  (*) Chl20
(PID.TID 0000.0001) GUD_CHECK:  230 Chl  (*) Chl21
(PID.TID 0000.0001) GUD_CHECK:  231 Chl  (*) Chl22
(PID.TID 0000.0001) GUD_CHECK:  232 Chl  (*) Chl23
(PID.TID 0000.0001) GUD_CHECK:  233 Chl  (*) Chl24
(PID.TID 0000.0001) GAD_CHECK: #define ALLOW_GENERIC_ADVDIFF
(PID.TID 0000.0001) // =======================================================
(PID.TID 0000.0001) // Check Model config. (CONFIG_CHECK):
(PID.TID 0000.0001) // CONFIG_CHECK : Normal End
(PID.TID 0000.0001) // =======================================================
(PID.TID 0000.0001) 
(PID.TID 0000.0001)  MDS_READ_FIELD: opening global file: ../input/input/loc1_temp_janprof.bin
(PID.TID 0000.0001)  MDS_READ_FIELD: opening global file: ../input/input/salt_uniform.bin
(PID.TID 0000.0001) Start initial hydrostatic pressure computation
(PID.TID 0000.0001) Pressure is predetermined for buoyancyRelation OCEANIC
(PID.TID 0000.0001) 
(PID.TID 0000.0001)  MDS_READ_FIELD: opening global file: ../input/input/loc1_taux_monsurf.bin
(PID.TID 0000.0001)  MDS_READ_FIELD: opening global file: ../input/input/loc1_tauy_monsurf.bin
(PID.TID 0000.0001)  MDS_READ_FIELD: opening global file: ../input/input/loc1_temp_monsurf.bin
(PID.TID 0000.0001)  write diagnostics summary to file ioUnit:      6
Iter.Nb:         0 ; Time(s):  0.0000000000000E+00
------------------------------------------------------------------------
2D/3D diagnostics: Number of lists:     1
------------------------------------------------------------------------
listId=    1 ; file name: gud
 nFlds, nActive,       freq     &     phase        , nLev               
  237  |  237  |      3600.000000         0.000000 |  35
 levels:   1   2   3   4   5   6   7   8   9  10  11  12  13  14  15  16  17  18  19  20  21  22  23  24  25
 levels:  26  27  28  29  30  31  32  33  34  35
 diag# | name   |   ipt  |  iMate | kLev|   count |   mate.C|           
   160 |TRAC01  |      1 |      0 |  35 |       0 |
   174 |TRAC02  |     36 |      0 |  35 |       0 |
   188 |TRAC03  |     71 |      0 |  35 |       0 |
   202 |TRAC04  |    106 |      0 |  35 |       0 |
   216 |TRAC05  |    141 |      0 |  35 |       0 |
   230 |TRAC06  |    176 |      0 |  35 |       0 |
   244 |TRAC07  |    211 |      0 |  35 |       0 |
   258 |TRAC08  |    246 |      0 |  35 |       0 |
   272 |TRAC09  |    281 |      0 |  35 |       0 |
   286 |TRAC10  |    316 |      0 |  35 |       0 |
   300 |TRAC11  |    351 |      0 |  35 |       0 |
   314 |TRAC12  |    386 |      0 |  35 |       0 |
   328 |TRAC13  |    421 |      0 |  35 |       0 |
   342 |TRAC14  |    456 |      0 |  35 |       0 |
   356 |TRAC15  |    491 |      0 |  35 |       0 |
   370 |TRAC16  |    526 |      0 |  35 |       0 |
   384 |TRAC17  |    561 |      0 |  35 |       0 |
   398 |TRAC18  |    596 |      0 |  35 |       0 |
   412 |TRAC19  |    631 |      0 |  35 |       0 |
   426 |TRAC20  |    666 |      0 |  35 |       0 |
   440 |TRAC21  |    701 |      0 |  35 |       0 |
   454 |TRAC22  |    736 |      0 |  35 |       0 |
   468 |TRAC23  |    771 |      0 |  35 |       0 |
   482 |TRAC24  |    806 |      0 |  35 |       0 |
   496 |TRAC25  |    841 |      0 |  35 |       0 |
   510 |TRAC26  |    876 |      0 |  35 |       0 |
   524 |TRAC27  |    911 |      0 |  35 |       0 |
   538 |TRAC28  |    946 |      0 |  35 |       0 |
   552 |TRAC29  |    981 |      0 |  35 |       0 |
   566 |TRAC30  |   1016 |      0 |  35 |       0 |
   580 |TRAC31  |   1051 |      0 |  35 |       0 |
   594 |TRAC32  |   1086 |      0 |  35 |       0 |
   608 |TRAC33  |   1121 |      0 |  35 |       0 |
   622 |TRAC34  |   1156 |      0 |  35 |       0 |
   636 |TRAC35  |   1191 |      0 |  35 |       0 |
   650 |TRAC36  |   1226 |      0 |  35 |       0 |
   664 |TRAC37  |   1261 |      0 |  35 |       0 |
   678 |TRAC38  |   1296 |      0 |  35 |       0 |
   692 |TRAC39  |   1331 |      0 |  35 |       0 |
   706 |TRAC40  |   1366 |      0 |  35 |       0 |
   720 |TRAC41  |   1401 |      0 |  35 |       0 |
   734 |TRAC42  |   1436 |      0 |  35 |       0 |
   748 |TRAC43  |   1471 |      0 |  35 |       0 |
   762 |TRAC44  |   1506 |      0 |  35 |       0 |
   776 |TRAC45  |   1541 |      0 |  35 |       0 |
   790 |TRAC46  |   1576 |      0 |  35 |       0 |
   804 |TRAC47  |   1611 |      0 |  35 |       0 |
   818 |TRAC48  |   1646 |      0 |  35 |       0 |
   832 |TRAC49  |   1681 |      0 |  35 |       0 |
   846 |TRAC50  |   1716 |      0 |  35 |       0 |
   860 |TRAC51  |   1751 |      0 |  35 |       0 |
   874 |TRAC52  |   1786 |      0 |  35 |       0 |
   888 |TRAC53  |   1821 |      0 |  35 |       0 |
   902 |TRAC54  |   1856 |      0 |  35 |       0 |
   916 |TRAC55  |   1891 |      0 |  35 |       0 |
   930 |TRAC56  |   1926 |      0 |  35 |       0 |
   944 |TRAC57  |   1961 |      0 |  35 |       0 |
   958 |TRAC58  |   1996 |      0 |  35 |       0 |
   972 |TRAC59  |   2031 |      0 |  35 |       0 |
   986 |TRAC60  |   2066 |      0 |  35 |       0 |
  1000 |TRAC61  |   2101 |      0 |  35 |       0 |
  1014 |TRAC62  |   2136 |      0 |  35 |       0 |
  1028 |TRAC63  |   2171 |      0 |  35 |       0 |
  1042 |TRAC64  |   2206 |      0 |  35 |       0 |
  1056 |TRAC65  |   2241 |      0 |  35 |       0 |
  1070 |TRAC66  |   2276 |      0 |  35 |       0 |
  1084 |TRAC67  |   2311 |      0 |  35 |       0 |
  1098 |TRAC68  |   2346 |      0 |  35 |       0 |
  1112 |TRAC69  |   2381 |      0 |  35 |       0 |
  1126 |TRAC70  |   2416 |      0 |  35 |       0 |
  1140 |TRAC71  |   2451 |      0 |  35 |       0 |
  1154 |TRAC72  |   2486 |      0 |  35 |       0 |
  1168 |TRAC73  |   2521 |      0 |  35 |       0 |
  1182 |TRAC74  |   2556 |      0 |  35 |       0 |
  1196 |TRAC75  |   2591 |      0 |  35 |       0 |
  1210 |TRAC76  |   2626 |      0 |  35 |       0 |
  1224 |TRAC77  |   2661 |      0 |  35 |       0 |
  1238 |TRAC78  |   2696 |      0 |  35 |       0 |
  1252 |TRAC79  |   2731 |      0 |  35 |       0 |
  1266 |TRAC80  |   2766 |      0 |  35 |       0 |
  1280 |TRAC81  |   2801 |      0 |  35 |       0 |
  1294 |TRAC82  |   2836 |      0 |  35 |       0 |
  1308 |TRAC83  |   2871 |      0 |  35 |       0 |
  1322 |TRAC84  |   2906 |      0 |  35 |       0 |
  1336 |TRAC85  |   2941 |      0 |  35 |       0 |
  1350 |TRAC86  |   2976 |      0 |  35 |       0 |
  1364 |TRAC87  |   3011 |      0 |  35 |       0 |
  1378 |TRAC88  |   3046 |      0 |  35 |       0 |
  1392 |TRAC89  |   3081 |      0 |  35 |       0 |
  1406 |TRAC90  |   3116 |      0 |  35 |       0 |
  1420 |TRAC91  |   3151 |      0 |  35 |       0 |
  1434 |TRAC92  |   3186 |      0 |  35 |       0 |
  1448 |TRAC93  |   3221 |      0 |  35 |       0 |
  1462 |TRAC94  |   3256 |      0 |  35 |       0 |
  1476 |TRAC95  |   3291 |      0 |  35 |       0 |
  1490 |TRAC96  |   3326 |      0 |  35 |       0 |
  1504 |TRAC97  |   3361 |      0 |  35 |       0 |
  1518 |TRAC98  |   3396 |      0 |  35 |       0 |
  1532 |TRAC99  |   3431 |      0 |  35 |       0 |
  1546 |TRAC0a  |   3466 |      0 |  35 |       0 |
  1560 |TRAC0b  |   3501 |      0 |  35 |       0 |
  1574 |TRAC0c  |   3536 |      0 |  35 |       0 |
  1588 |TRAC0d  |   3571 |      0 |  35 |       0 |
  1602 |TRAC0e  |   3606 |      0 |  35 |       0 |
  1616 |TRAC0f  |   3641 |      0 |  35 |       0 |
  1630 |TRAC0g  |   3676 |      0 |  35 |       0 |
  1644 |TRAC0h  |   3711 |      0 |  35 |       0 |
  1658 |TRAC0i  |   3746 |      0 |  35 |       0 |
  1672 |TRAC0j  |   3781 |      0 |  35 |       0 |
  1686 |TRAC0k  |   3816 |      0 |  35 |       0 |
  1700 |TRAC0l  |   3851 |      0 |  35 |       0 |
  1714 |TRAC0m  |   3886 |      0 |  35 |       0 |
  1728 |TRAC0n  |   3921 |      0 |  35 |       0 |
   160 |TRAC01  |     -1 |      0 |  35 |       0 |
  1742 |TRAC0o  |   3956 |      0 |  35 |       0 |
  1770 |TRAC0q  |   3991 |      0 |  35 |       0 |
  1784 |TRAC0r  |   4026 |      0 |  35 |       0 |
  1798 |TRAC0s  |   4061 |      0 |  35 |       0 |
  1812 |TRAC0t  |   4096 |      0 |  35 |       0 |
  1826 |TRAC0u  |   4131 |      0 |  35 |       0 |
  1840 |TRAC0v  |   4166 |      0 |  35 |       0 |
  1854 |TRAC0w  |   4201 |      0 |  35 |       0 |
  1868 |TRAC0x  |   4236 |      0 |  35 |       0 |
  1882 |TRAC0y  |   4271 |      0 |  35 |       0 |
  1896 |TRAC0z  |   4306 |      0 |  35 |       0 |
  1910 |TRAC0A  |   4341 |      0 |  35 |       0 |
  1924 |TRAC0B  |   4376 |      0 |  35 |       0 |
  1938 |TRAC0C  |   4411 |      0 |  35 |       0 |
  1952 |TRAC0D  |   4446 |      0 |  35 |       0 |
  1966 |TRAC0E  |   4481 |      0 |  35 |       0 |
  1980 |TRAC0F  |   4516 |      0 |  35 |       0 |
  1994 |TRAC0G  |   4551 |      0 |  35 |       0 |
  2008 |TRAC0H  |   4586 |      0 |  35 |       0 |
  2022 |TRAC0I  |   4621 |      0 |  35 |       0 |
  2036 |TRAC0J  |   4656 |      0 |  35 |       0 |
  2050 |TRAC0K  |   4691 |      0 |  35 |       0 |
  2064 |TRAC0L  |   4726 |      0 |  35 |       0 |
  2078 |TRAC0M  |   4761 |      0 |  35 |       0 |
  2092 |TRAC0N  |   4796 |      0 |  35 |       0 |
   160 |TRAC01  |     -1 |      0 |  35 |       0 |
  2106 |TRAC0O  |   4831 |      0 |  35 |       0 |
  2134 |TRAC0Q  |   4866 |      0 |  35 |       0 |
  2148 |TRAC0R  |   4901 |      0 |  35 |       0 |
  2162 |TRAC0S  |   4936 |      0 |  35 |       0 |
  2176 |TRAC0T  |   4971 |      0 |  35 |       0 |
  2190 |TRAC0U  |   5006 |      0 |  35 |       0 |
  2204 |TRAC0V  |   5041 |      0 |  35 |       0 |
  2218 |TRAC0W  |   5076 |      0 |  35 |       0 |
  2232 |TRAC0X  |   5111 |      0 |  35 |       0 |
  2246 |TRAC0Y  |   5146 |      0 |  35 |       0 |
  2260 |TRAC0Z  |   5181 |      0 |  35 |       0 |
  2274 |TRAC1a  |   5216 |      0 |  35 |       0 |
  2288 |TRAC1b  |   5251 |      0 |  35 |       0 |
  2302 |TRAC1c  |   5286 |      0 |  35 |       0 |
  2316 |TRAC1d  |   5321 |      0 |  35 |       0 |
  2330 |TRAC1e  |   5356 |      0 |  35 |       0 |
  2344 |TRAC1f  |   5391 |      0 |  35 |       0 |
  2358 |TRAC1g  |   5426 |      0 |  35 |       0 |
  2372 |TRAC1h  |   5461 |      0 |  35 |       0 |
  2386 |TRAC1i  |   5496 |      0 |  35 |       0 |
  2400 |TRAC1j  |   5531 |      0 |  35 |       0 |
  2414 |TRAC1k  |   5566 |      0 |  35 |       0 |
  2428 |TRAC1l  |   5601 |      0 |  35 |       0 |
  2442 |TRAC1m  |   5636 |      0 |  35 |       0 |
  2456 |TRAC1n  |   5671 |      0 |  35 |       0 |
   300 |TRAC11  |   -351 |      0 |  35 |       0 |
  2470 |TRAC1o  |   5706 |      0 |  35 |       0 |
  2498 |TRAC1q  |   5741 |      0 |  35 |       0 |
  2512 |TRAC1r  |   5776 |      0 |  35 |       0 |
  2526 |TRAC1s  |   5811 |      0 |  35 |       0 |
  2540 |TRAC1t  |   5846 |      0 |  35 |       0 |
  2554 |TRAC1u  |   5881 |      0 |  35 |       0 |
  2568 |TRAC1v  |   5916 |      0 |  35 |       0 |
  2582 |TRAC1w  |   5951 |      0 |  35 |       0 |
  2596 |TRAC1x  |   5986 |      0 |  35 |       0 |
  2610 |TRAC1y  |   6021 |      0 |  35 |       0 |
  2624 |TRAC1z  |   6056 |      0 |  35 |       0 |
  2638 |TRAC1A  |   6091 |      0 |  35 |       0 |
  2652 |TRAC1B  |   6126 |      0 |  35 |       0 |
  2666 |TRAC1C  |   6161 |      0 |  35 |       0 |
  2680 |TRAC1D  |   6196 |      0 |  35 |       0 |
  2694 |TRAC1E  |   6231 |      0 |  35 |       0 |
  2708 |TRAC1F  |   6266 |      0 |  35 |       0 |
  2722 |TRAC1G  |   6301 |      0 |  35 |       0 |
  2736 |TRAC1H  |   6336 |      0 |  35 |       0 |
  2750 |TRAC1I  |   6371 |      0 |  35 |       0 |
  2764 |TRAC1J  |   6406 |      0 |  35 |       0 |
  2778 |TRAC1K  |   6441 |      0 |  35 |       0 |
  2792 |TRAC1L  |   6476 |      0 |  35 |       0 |
  2806 |TRAC1M  |   6511 |      0 |  35 |       0 |
  2820 |TRAC1N  |   6546 |      0 |  35 |       0 |
   300 |TRAC11  |   -351 |      0 |  35 |       0 |
  2834 |TRAC1O  |   6581 |      0 |  35 |       0 |
  2862 |TRAC1Q  |   6616 |      0 |  35 |       0 |
  2876 |TRAC1R  |   6651 |      0 |  35 |       0 |
  2890 |TRAC1S  |   6686 |      0 |  35 |       0 |
  2904 |TRAC1T  |   6721 |      0 |  35 |       0 |
  2918 |TRAC1U  |   6756 |      0 |  35 |       0 |
  2932 |TRAC1V  |   6791 |      0 |  35 |       0 |
  2946 |TRAC1W  |   6826 |      0 |  35 |       0 |
  2960 |TRAC1X  |   6861 |      0 |  35 |       0 |
  2974 |TRAC1Y  |   6896 |      0 |  35 |       0 |
  2988 |TRAC1Z  |   6931 |      0 |  35 |       0 |
  3002 |TRAC2a  |   6966 |      0 |  35 |       0 |
  3016 |TRAC2b  |   7001 |      0 |  35 |       0 |
  3030 |TRAC2c  |   7036 |      0 |  35 |       0 |
  3044 |TRAC2d  |   7071 |      0 |  35 |       0 |
  3058 |TRAC2e  |   7106 |      0 |  35 |       0 |
  3072 |TRAC2f  |   7141 |      0 |  35 |       0 |
  3086 |TRAC2g  |   7176 |      0 |  35 |       0 |
  3100 |TRAC2h  |   7211 |      0 |  35 |       0 |
  3114 |TRAC2i  |   7246 |      0 |  35 |       0 |
  3128 |TRAC2j  |   7281 |      0 |  35 |       0 |
  3142 |TRAC2k  |   7316 |      0 |  35 |       0 |
  3156 |TRAC2l  |   7351 |      0 |  35 |       0 |
  3170 |TRAC2m  |   7386 |      0 |  35 |       0 |
  3184 |TRAC2n  |   7421 |      0 |  35 |       0 |
   440 |TRAC21  |   -701 |      0 |  35 |       0 |
  3198 |TRAC2o  |   7456 |      0 |  35 |       0 |
  3226 |TRAC2q  |   7491 |      0 |  35 |       0 |
  3240 |TRAC2r  |   7526 |      0 |  35 |       0 |
  3254 |TRAC2s  |   7561 |      0 |  35 |       0 |
  3268 |TRAC2t  |   7596 |      0 |  35 |       0 |
  3282 |TRAC2u  |   7631 |      0 |  35 |       0 |
  3296 |TRAC2v  |   7666 |      0 |  35 |       0 |
  3310 |TRAC2w  |   7701 |      0 |  35 |       0 |
  3324 |TRAC2x  |   7736 |      0 |  35 |       0 |
  3338 |TRAC2y  |   7771 |      0 |  35 |       0 |
  3352 |TRAC2z  |   7806 |      0 |  35 |       0 |
  3366 |TRAC2A  |   7841 |      0 |  35 |       0 |
  3380 |TRAC2B  |   7876 |      0 |  35 |       0 |
  3394 |TRAC2C  |   7911 |      0 |  35 |       0 |
  3408 |TRAC2D  |   7946 |      0 |  35 |       0 |
  3430 |PAR01   |   7981 |      0 |  35 |       0 |
  3423 |PP      |   8016 |      0 |  35 |       0 |
  3424 |Nfix    |   8051 |      0 |  35 |       0 |
  3425 |Denit   |   8086 |      0 |  35 |       0 |
------------------------------------------------------------------------
Global & Regional Statistics diagnostics: Number of lists:     3
------------------------------------------------------------------------
listId=   1 ; file name: statsPP
 nFlds, nActive,       freq     &     phase        |                    
    1  |    1  |      3600.000000         0.000000 |
 Regions:   0
 diag# | name   |   ipt  |  iMate |    Volume   |   mate-Vol. |         
  3423 |PP      |      1 |      0 | 0.00000E+00 |
------------------------------------------------------------------------
listId=   2 ; file name: statsNfix
 nFlds, nActive,       freq     &     phase        |                    
    1  |    1  |      3600.000000         0.000000 |
 Regions:   0
 diag# | name   |   ipt  |  iMate |    Volume   |   mate-Vol. |         
  3424 |Nfix    |     36 |      0 | 0.00000E+00 |
------------------------------------------------------------------------
listId=   3 ; file name: statsDenit
 nFlds, nActive,       freq     &     phase        |                    
    1  |    1  |      3600.000000         0.000000 |
 Regions:   0
 diag# | name   |   ipt  |  iMate |    Volume   |   mate-Vol. |         
  3425 |Denit   |     71 |      0 | 0.00000E+00 |
------------------------------------------------------------------------
(PID.TID 0000.0001)  MDS_READ_FIELD: opening global file: ../input/input/loc1_glodap_tco2_ann-3d.bin
(PID.TID 0000.0001)  MDS_READ_FIELD: opening global file: ../input/input/loc1_nh4_y2000.data
(PID.TID 0000.0001)  MDS_READ_FIELD: opening global file: ../input/input/loc1_no2_y2000.data
(PID.TID 0000.0001)  MDS_READ_FIELD: opening global file: ../input/input/loc1_lev01_nitrate_ann-3d.bin
(PID.TID 0000.0001)  MDS_READ_FIELD: opening global file: ../input/input/loc1_lev01_phosphate_ann-3d.bin
(PID.TID 0000.0001)  MDS_READ_FIELD: opening global file: ../input/input/loc1_lev01_silicate_ann-3d.bin
(PID.TID 0000.0001)  MDS_READ_FIELD: opening global file: ../input/input/loc1_fet_y2000.data
(PID.TID 0000.0001)  MDS_READ_FIELD: opening global file: ../input/input/loc1_doc_y2000.data
(PID.TID 0000.0001)  MDS_READ_FIELD: opening global file: ../input/input/loc1_don_y2000.data
(PID.TID 0000.0001)  MDS_READ_FIELD: opening global file: ../input/input/loc1_dop_y2000.data
(PID.TID 0000.0001)  MDS_READ_FIELD: opening global file: ../input/input/loc1_dofe_y2000.data
(PID.TID 0000.0001)  MDS_READ_FIELD: opening global file: ../input/input/loc1_poc_y2000.data
(PID.TID 0000.0001)  MDS_READ_FIELD: opening global file: ../input/input/loc1_pon_y2000.data
(PID.TID 0000.0001)  MDS_READ_FIELD: opening global file: ../input/input/loc1_pop_y2000.data
(PID.TID 0000.0001)  MDS_READ_FIELD: opening global file: ../input/input/loc1_posi_y2000.data
(PID.TID 0000.0001)  MDS_READ_FIELD: opening global file: ../input/input/loc1_pofe_y2000.data
(PID.TID 0000.0001)  MDS_READ_FIELD: opening global file: ../input/input/loc1_pic_y2000.data
(PID.TID 0000.0001)  MDS_READ_FIELD: opening global file: ../input/input/loc1_glodap_alk_ann-3d.bin
(PID.TID 0000.0001)  MDS_READ_FIELD: opening global file: ../input/input/loc1_lev01_oxygen_ann-3d.bin
(PID.TID 0000.0001)  MDS_READ_FIELD: opening global file: ../input/input/loc1_phy78_x120_lev01.bin
(PID.TID 0000.0001)  MDS_READ_FIELD: opening global file: ../input/input/loc1_phy78_x120_lev01.bin
(PID.TID 0000.0001)  MDS_READ_FIELD: opening global file: ../input/input/loc1_phy78_x120_lev01.bin
(PID.TID 0000.0001)  MDS_READ_FIELD: opening global file: ../input/input/loc1_phy78_x120_lev01.bin
(PID.TID 0000.0001)  MDS_READ_FIELD: opening global file: ../input/input/loc1_phy78_x120_lev01.bin
(PID.TID 0000.0001)  MDS_READ_FIELD: opening global file: ../input/input/loc1_phy78_x120_lev01.bin
(PID.TID 0000.0001)  MDS_READ_FIELD: opening global file: ../input/input/loc1_phy78_x120_lev01.bin
(PID.TID 0000.0001)  MDS_READ_FIELD: opening global file: ../input/input/loc1_phy78_x120_lev01.bin
(PID.TID 0000.0001)  MDS_READ_FIELD: opening global file: ../input/input/loc1_phy78_x120_lev01.bin
(PID.TID 0000.0001)  MDS_READ_FIELD: opening global file: ../input/input/loc1_phy78_x120_lev01.bin
(PID.TID 0000.0001)  MDS_READ_FIELD: opening global file: ../input/input/loc1_phy78_x120_lev01.bin
(PID.TID 0000.0001)  MDS_READ_FIELD: opening global file: ../input/input/loc1_phy78_x120_lev01.bin
(PID.TID 0000.0001)  MDS_READ_FIELD: opening global file: ../input/input/loc1_phy78_x120_lev01.bin
(PID.TID 0000.0001)  MDS_READ_FIELD: opening global file: ../input/input/loc1_phy78_x120_lev01.bin
(PID.TID 0000.0001)  MDS_READ_FIELD: opening global file: ../input/input/loc1_phy78_x120_lev01.bin
(PID.TID 0000.0001)  MDS_READ_FIELD: opening global file: ../input/input/loc1_phy78_x120_lev01.bin
(PID.TID 0000.0001)  MDS_READ_FIELD: opening global file: ../input/input/loc1_phy78_x120_lev01.bin
(PID.TID 0000.0001)  MDS_READ_FIELD: opening global file: ../input/input/loc1_phy78_x120_lev01.bin
(PID.TID 0000.0001)  MDS_READ_FIELD: opening global file: ../input/input/loc1_phy78_x120_lev01.bin
(PID.TID 0000.0001)  MDS_READ_FIELD: opening global file: ../input/input/loc1_phy78_x120_lev01.bin
(PID.TID 0000.0001)  MDS_READ_FIELD: opening global file: ../input/input/loc1_phy78_x120_lev01.bin
(PID.TID 0000.0001)  MDS_READ_FIELD: opening global file: ../input/input/loc1_phy78_x120_lev01.bin
(PID.TID 0000.0001)  MDS_READ_FIELD: opening global file: ../input/input/loc1_phy78_x120_lev01.bin
(PID.TID 0000.0001)  MDS_READ_FIELD: opening global file: ../input/input/loc1_phy78_x120_lev01.bin
(PID.TID 0000.0001)  MDS_READ_FIELD: opening global file: ../input/input/loc1_phy78_x120_lev01.bin
(PID.TID 0000.0001)  MDS_READ_FIELD: opening global file: ../input/input/loc1_phy78_x120_lev01.bin
(PID.TID 0000.0001)  MDS_READ_FIELD: opening global file: ../input/input/loc1_phy78_x120_lev01.bin
(PID.TID 0000.0001)  MDS_READ_FIELD: opening global file: ../input/input/loc1_phy78_x120_lev01.bin
(PID.TID 0000.0001)  MDS_READ_FIELD: opening global file: ../input/input/loc1_phy78_x120_lev01.bin
(PID.TID 0000.0001)  MDS_READ_FIELD: opening global file: ../input/input/loc1_phy78_x120_lev01.bin
(PID.TID 0000.0001)  MDS_READ_FIELD: opening global file: ../input/input/loc1_phy78_x120_lev01.bin
(PID.TID 0000.0001)  MDS_READ_FIELD: opening global file: ../input/input/loc1_phy78_x120_lev01.bin
(PID.TID 0000.0001)  MDS_READ_FIELD: opening global file: ../input/input/loc1_phy78_x120_lev01.bin
(PID.TID 0000.0001)  MDS_READ_FIELD: opening global file: ../input/input/loc1_phy78_x120_lev01.bin
(PID.TID 0000.0001)  MDS_READ_FIELD: opening global file: ../input/input/loc1_phy78_x120_lev01.bin
(PID.TID 0000.0001)  MDS_READ_FIELD: opening global file: ../input/input/loc1_phy78_x120_lev01.bin
(PID.TID 0000.0001)  MDS_READ_FIELD: opening global file: ../input/input/loc1_phy78_x120_lev01.bin
(PID.TID 0000.0001)  MDS_READ_FIELD: opening global file: ../input/input/loc1_phy78_x120_lev01.bin
(PID.TID 0000.0001)  MDS_READ_FIELD: opening global file: ../input/input/loc1_phy78_x16_lev01.bin
(PID.TID 0000.0001)  MDS_READ_FIELD: opening global file: ../input/input/loc1_phy78_x16_lev01.bin
(PID.TID 0000.0001)  MDS_READ_FIELD: opening global file: ../input/input/loc1_phy78_x16_lev01.bin
(PID.TID 0000.0001)  MDS_READ_FIELD: opening global file: ../input/input/loc1_phy78_x16_lev01.bin
(PID.TID 0000.0001)  MDS_READ_FIELD: opening global file: ../input/input/loc1_phy78_x40_lev01.bin
(PID.TID 0000.0001)  MDS_READ_FIELD: opening global file: ../input/input/loc1_phy78_x16_lev01.bin
(PID.TID 0000.0001)  MDS_READ_FIELD: opening global file: ../input/input/loc1_phy78_x16_lev01.bin
(PID.TID 0000.0001)  MDS_READ_FIELD: opening global file: ../input/input/loc1_phy78_x40_lev01.bin
(PID.TID 0000.0001)  MDS_READ_FIELD: opening global file: ../input/input/loc1_phy78_x16_lev01.bin
(PID.TID 0000.0001)  MDS_READ_FIELD: opening global file: ../input/input/loc1_phy78_x16_lev01.bin
(PID.TID 0000.0001)  MDS_READ_FIELD: opening global file: ../input/input/loc1_phy78_x40_lev01.bin
(PID.TID 0000.0001)  MDS_READ_FIELD: opening global file: ../input/input/loc1_phy78_x16_lev01.bin
(PID.TID 0000.0001)  MDS_READ_FIELD: opening global file: ../input/input/loc1_phy78_x16_lev01.bin
(PID.TID 0000.0001)  MDS_READ_FIELD: opening global file: ../input/input/loc1_phy78_x40_lev01.bin
(PID.TID 0000.0001)  MDS_READ_FIELD: opening global file: ../input/input/loc1_phy78_x16_lev01.bin
(PID.TID 0000.0001)  MDS_READ_FIELD: opening global file: ../input/input/loc1_phy78_x16_lev01.bin
(PID.TID 0000.0001)  MDS_READ_FIELD: opening global file: ../input/input/loc1_phy78_x40_lev01.bin
(PID.TID 0000.0001)  MDS_READ_FIELD: opening global file: ../input/input/loc1_phy78_x16_lev01.bin
(PID.TID 0000.0001)  MDS_READ_FIELD: opening global file: ../input/input/loc1_phy78_x16_lev01.bin
(PID.TID 0000.0001)  MDS_READ_FIELD: opening global file: ../input/input/loc1_phy78_x16_lev01.bin
(PID.TID 0000.0001)  MDS_READ_FIELD: opening global file: ../input/input/loc1_phy78_x16_lev01.bin
(PID.TID 0000.0001)  MDS_READ_FIELD: opening global file: ../input/input/loc1_phy78_x16_lev01.bin
(PID.TID 0000.0001)  MDS_READ_FIELD: opening global file: ../input/input/loc1_phy78_x16_lev01.bin
(PID.TID 0000.0001)  MDS_READ_FIELD: opening global file: ../input/input/loc1_phy78_x16_lev01.bin
(PID.TID 0000.0001)  MDS_READ_FIELD: opening global file: ../input/input/loc1_phy78_x16_lev01.bin
(PID.TID 0000.0001)  MDS_READ_FIELD: opening global file: ../input/input/loc1_phy78_x16_lev01.bin
(PID.TID 0000.0001)  MDS_READ_FIELD: opening global file: ../input/input/loc1_phy78_x16_lev01.bin
(PID.TID 0000.0001)  MDS_READ_FIELD: opening global file: ../input/input/loc1_phy78_x16_lev01.bin
(PID.TID 0000.0001)  MDS_READ_FIELD: opening global file: ../input/input/loc1_phy78_x16_lev01.bin
(PID.TID 0000.0001)  MDS_READ_FIELD: opening global file: ../input/input/loc1_phy78_x16_lev01.bin
(PID.TID 0000.0001)  MDS_READ_FIELD: opening global file: ../input/input/loc1_phy78_x16_lev01.bin
(PID.TID 0000.0001)  MDS_READ_FIELD: opening global file: ../input/input/loc1_phy78_x16_lev01.bin
(PID.TID 0000.0001)  MDS_READ_FIELD: opening global file: ../input/input/loc1_phy78_x16_lev01.bin
(PID.TID 0000.0001)  MDS_READ_FIELD: opening global file: ../input/input/loc1_phy78_x16_lev01.bin
(PID.TID 0000.0001)  MDS_READ_FIELD: opening global file: ../input/input/loc1_phy78_x16_lev01.bin
(PID.TID 0000.0001)  MDS_READ_FIELD: opening global file: ../input/input/loc1_phy78_x16_lev01.bin
(PID.TID 0000.0001)  MDS_READ_FIELD: opening global file: ../input/input/loc1_phy78_x16_lev01.bin
(PID.TID 0000.0001)  MDS_READ_FIELD: opening global file: ../input/input/loc1_phy78_x16_lev01.bin
(PID.TID 0000.0001)  MDS_READ_FIELD: opening global file: ../input/input/loc1_phy78_lev01.bin
(PID.TID 0000.0001)  MDS_READ_FIELD: opening global file: ../input/input/loc1_phy78_lev01.bin
(PID.TID 0000.0001)  MDS_READ_FIELD: opening global file: ../input/input/loc1_phy78_lev01.bin
(PID.TID 0000.0001)  MDS_READ_FIELD: opening global file: ../input/input/loc1_phy78_lev01.bin
(PID.TID 0000.0001)  MDS_READ_FIELD: opening global file: ../input/input/loc1_phy78_lev01.bin
(PID.TID 0000.0001)  MDS_READ_FIELD: opening global file: ../input/input/loc1_phy78_lev01.bin
(PID.TID 0000.0001)  MDS_READ_FIELD: opening global file: ../input/input/loc1_phy78_lev01.bin
(PID.TID 0000.0001)  MDS_READ_FIELD: opening global file: ../input/input/loc1_phy78_lev01.bin
(PID.TID 0000.0001)  MDS_READ_FIELD: opening global file: ../input/input/loc1_phy78_lev01.bin
(PID.TID 0000.0001)  MDS_READ_FIELD: opening global file: ../input/input/loc1_phy78_lev01.bin
(PID.TID 0000.0001)  MDS_READ_FIELD: opening global file: ../input/input/loc1_phy78_lev01.bin
(PID.TID 0000.0001)  MDS_READ_FIELD: opening global file: ../input/input/loc1_phy78_lev01.bin
(PID.TID 0000.0001)  MDS_READ_FIELD: opening global file: ../input/input/loc1_phy78_lev01.bin
(PID.TID 0000.0001)  MDS_READ_FIELD: opening global file: ../input/input/loc1_phy78_lev01.bin
(PID.TID 0000.0001)  MDS_READ_FIELD: opening global file: ../input/input/loc1_phy78_lev01.bin
(PID.TID 0000.0001)  MDS_READ_FIELD: opening global file: ../input/input/loc1_phy78_lev01.bin
(PID.TID 0000.0001)  MDS_READ_FIELD: opening global file: ../input/input/loc1_phy78_lev01.bin
(PID.TID 0000.0001)  MDS_READ_FIELD: opening global file: ../input/input/loc1_phy78_lev01.bin
(PID.TID 0000.0001)  MDS_READ_FIELD: opening global file: ../input/input/loc1_phy78_lev01.bin
(PID.TID 0000.0001)  MDS_READ_FIELD: opening global file: ../input/input/loc1_phy78_lev01.bin
(PID.TID 0000.0001)  MDS_READ_FIELD: opening global file: ../input/input/loc1_phy78_lev01.bin
(PID.TID 0000.0001)  MDS_READ_FIELD: opening global file: ../input/input/loc1_phy78_lev01.bin
(PID.TID 0000.0001)  MDS_READ_FIELD: opening global file: ../input/input/loc1_phy78_lev01.bin
(PID.TID 0000.0001)  MDS_READ_FIELD: opening global file: ../input/input/loc1_phy78_lev01.bin
(PID.TID 0000.0001)  MDS_READ_FIELD: opening global file: ../input/input/loc1_phy78_lev01.bin
(PID.TID 0000.0001)  MDS_READ_FIELD: opening global file: ../input/input/loc1_phy78_lev01.bin
(PID.TID 0000.0001)  MDS_READ_FIELD: opening global file: ../input/input/loc1_phy78_lev01.bin
(PID.TID 0000.0001)  MDS_READ_FIELD: opening global file: ../input/input/loc1_phy78_lev01.bin
(PID.TID 0000.0001)  MDS_READ_FIELD: opening global file: ../input/input/loc1_phy78_lev01.bin
(PID.TID 0000.0001)  MDS_READ_FIELD: opening global file: ../input/input/loc1_phy78_lev01.bin
(PID.TID 0000.0001)  MDS_READ_FIELD: opening global file: ../input/input/loc1_phy78_lev01.bin
(PID.TID 0000.0001)  MDS_READ_FIELD: opening global file: ../input/input/loc1_phy78_lev01.bin
(PID.TID 0000.0001)  MDS_READ_FIELD: opening global file: ../input/input/loc1_phy78_lev01.bin
(PID.TID 0000.0001)  MDS_READ_FIELD: opening global file: ../input/input/loc1_phy78_lev01.bin
(PID.TID 0000.0001)  MDS_READ_FIELD: opening global file: ../input/input/loc1_phy78_lev01.bin
(PID.TID 0000.0001)  MDS_READ_FIELD: opening global file: ../input/input/loc1_phy78_lev01.bin
(PID.TID 0000.0001)  MDS_READ_FIELD: opening global file: ../input/input/loc1_phy78_lev01.bin
(PID.TID 0000.0001)  MDS_READ_FIELD: opening global file: ../input/input/loc1_phy78_lev01.bin
(PID.TID 0000.0001)  MDS_READ_FIELD: opening global file: ../input/input/loc1_phy78_x0.001_lev01.bin
(PID.TID 0000.0001)  MDS_READ_FIELD: opening global file: ../input/input/loc1_phy78_x0.001_lev01.bin
(PID.TID 0000.0001)  MDS_READ_FIELD: opening global file: ../input/input/loc1_phy78_x0.001_lev01.bin
(PID.TID 0000.0001)  MDS_READ_FIELD: opening global file: ../input/input/loc1_phy78_x0.001_lev01.bin
(PID.TID 0000.0001)  MDS_READ_FIELD: opening global file: ../input/input/loc1_phy78_x0.004_lev01.bin
(PID.TID 0000.0001)  MDS_READ_FIELD: opening global file: ../input/input/loc1_phy78_x0.001_lev01.bin
(PID.TID 0000.0001)  MDS_READ_FIELD: opening global file: ../input/input/loc1_phy78_x0.001_lev01.bin
(PID.TID 0000.0001)  MDS_READ_FIELD: opening global file: ../input/input/loc1_phy78_x0.004_lev01.bin
(PID.TID 0000.0001)  MDS_READ_FIELD: opening global file: ../input/input/loc1_phy78_x0.001_lev01.bin
(PID.TID 0000.0001)  MDS_READ_FIELD: opening global file: ../input/input/loc1_phy78_x0.001_lev01.bin
(PID.TID 0000.0001)  MDS_READ_FIELD: opening global file: ../input/input/loc1_phy78_x0.004_lev01.bin
(PID.TID 0000.0001)  MDS_READ_FIELD: opening global file: ../input/input/loc1_phy78_x0.001_lev01.bin
(PID.TID 0000.0001)  MDS_READ_FIELD: opening global file: ../input/input/loc1_phy78_x0.001_lev01.bin
(PID.TID 0000.0001)  MDS_READ_FIELD: opening global file: ../input/input/loc1_phy78_x0.004_lev01.bin
(PID.TID 0000.0001)  MDS_READ_FIELD: opening global file: ../input/input/loc1_phy78_x0.001_lev01.bin
(PID.TID 0000.0001)  MDS_READ_FIELD: opening global file: ../input/input/loc1_phy78_x0.001_lev01.bin
(PID.TID 0000.0001)  MDS_READ_FIELD: opening global file: ../input/input/loc1_phy78_x0.004_lev01.bin
(PID.TID 0000.0001)  MDS_READ_FIELD: opening global file: ../input/input/loc1_phy78_x0.001_lev01.bin
(PID.TID 0000.0001)  MDS_READ_FIELD: opening global file: ../input/input/loc1_phy78_x0.001_lev01.bin
(PID.TID 0000.0001)  MDS_READ_FIELD: opening global file: ../input/input/loc1_phy78_x0.001_lev01.bin
(PID.TID 0000.0001)  MDS_READ_FIELD: opening global file: ../input/input/loc1_phy78_x0.001_lev01.bin
(PID.TID 0000.0001)  MDS_READ_FIELD: opening global file: ../input/input/loc1_phy78_x0.001_lev01.bin
(PID.TID 0000.0001)  MDS_READ_FIELD: opening global file: ../input/input/loc1_phy78_x0.001_lev01.bin
(PID.TID 0000.0001)  MDS_READ_FIELD: opening global file: ../input/input/loc1_phy78_x0.001_lev01.bin
(PID.TID 0000.0001)  MDS_READ_FIELD: opening global file: ../input/input/loc1_phy78_x0.001_lev01.bin
(PID.TID 0000.0001)  MDS_READ_FIELD: opening global file: ../input/input/loc1_phy78_x0.001_lev01.bin
(PID.TID 0000.0001)  MDS_READ_FIELD: opening global file: ../input/input/loc1_phy78_x0.001_lev01.bin
(PID.TID 0000.0001)  MDS_READ_FIELD: opening global file: ../input/input/loc1_phy78_x0.001_lev01.bin
(PID.TID 0000.0001)  MDS_READ_FIELD: opening global file: ../input/input/loc1_phy78_x0.001_lev01.bin
(PID.TID 0000.0001)  MDS_READ_FIELD: opening global file: ../input/input/loc1_phy78_x0.001_lev01.bin
(PID.TID 0000.0001)  MDS_READ_FIELD: opening global file: ../input/input/loc1_phy78_x0.001_lev01.bin
(PID.TID 0000.0001)  MDS_READ_FIELD: opening global file: ../input/input/loc1_phy78_x0.001_lev01.bin
(PID.TID 0000.0001)  MDS_READ_FIELD: opening global file: ../input/input/loc1_phy78_x0.001_lev01.bin
(PID.TID 0000.0001)  MDS_READ_FIELD: opening global file: ../input/input/loc1_phy78_x0.001_lev01.bin
(PID.TID 0000.0001)  MDS_READ_FIELD: opening global file: ../input/input/loc1_phy78_x0.001_lev01.bin
(PID.TID 0000.0001)  MDS_READ_FIELD: opening global file: ../input/input/loc1_phy78_x0.001_lev01.bin
(PID.TID 0000.0001)  MDS_READ_FIELD: opening global file: ../input/input/loc1_phy78_x0.001_lev01.bin
(PID.TID 0000.0001)  MDS_READ_FIELD: opening global file: ../input/input/loc1_phy78_x0.001_lev01.bin
(PID.TID 0000.0001)  MDS_READ_FIELD: opening global file: ../input/input/loc1_phy78_x16_lev01.bin
(PID.TID 0000.0001)  MDS_READ_FIELD: opening global file: ../input/input/loc1_phy78_x16_lev01.bin
(PID.TID 0000.0001)  MDS_READ_FIELD: opening global file: ../input/input/loc1_phy78_x16_lev01.bin
(PID.TID 0000.0001)  MDS_READ_FIELD: opening global file: ../input/input/loc1_phy78_x16_lev01.bin
(PID.TID 0000.0001)  MDS_READ_FIELD: opening global file: ../input/input/loc1_phy78_x16_lev01.bin
(PID.TID 0000.0001)  MDS_READ_FIELD: opening global file: ../input/input/loc1_phy78_x16_lev01.bin
(PID.TID 0000.0001)  MDS_READ_FIELD: opening global file: ../input/input/loc1_phy78_x16_lev01.bin
(PID.TID 0000.0001)  MDS_READ_FIELD: opening global file: ../input/input/loc1_phy78_x16_lev01.bin
(PID.TID 0000.0001)  MDS_READ_FIELD: opening global file: ../input/input/loc1_phy78_x16_lev01.bin
(PID.TID 0000.0001)  MDS_READ_FIELD: opening global file: ../input/input/loc1_ecco_oasim_total_below_oneband_einm2d.bin
(PID.TID 0000.0001)  MDS_READ_FIELD: opening global file: ../input/input/loc1_ecco_oasim_total_below_oneband_einm2d.bin
(PID.TID 0000.0001)  MDS_READ_FIELD: opening global file: ../input/input/loc1_mahowald2009_solubile_current_smooth_oce_mth-2d.bin
(PID.TID 0000.0001)  MDS_READ_FIELD: opening global file: ../input/input/loc1_mahowald2009_solubile_current_smooth_oce_mth-2d.bin
(PID.TID 0000.0001)  MDS_READ_FIELD: opening global file: ../input/input/loc1_tren_speed_mth-2d.bin
(PID.TID 0000.0001)  MDS_READ_FIELD: opening global file: ../input/input/loc1_tren_speed_mth-2d.bin
(PID.TID 0000.0001) // =======================================================
(PID.TID 0000.0001) // Model current state
(PID.TID 0000.0001) // =======================================================
(PID.TID 0000.0001) 
(PID.TID 0000.0001) // =======================================================
(PID.TID 0000.0001) // Begin MONITOR dynamic field statistics
(PID.TID 0000.0001) // =======================================================
(PID.TID 0000.0001) %MON time_tsnumber                =                     0
(PID.TID 0000.0001) %MON time_secondsf                =   0.0000000000000000E+00
(PID.TID 0000.0001) %MON dynstat_eta_max              =   0.0000000000000000E+00
(PID.TID 0000.0001) %MON dynstat_eta_min              =   0.0000000000000000E+00
(PID.TID 0000.0001) %MON dynstat_eta_mean             =   0.0000000000000000E+00
(PID.TID 0000.0001) %MON dynstat_eta_sd               =   0.0000000000000000E+00
(PID.TID 0000.0001) %MON dynstat_eta_del2             =   0.0000000000000000E+00
(PID.TID 0000.0001) %MON dynstat_uvel_max             =   0.0000000000000000E+00
(PID.TID 0000.0001) %MON dynstat_uvel_min             =   0.0000000000000000E+00
(PID.TID 0000.0001) %MON dynstat_uvel_mean            =   0.0000000000000000E+00
(PID.TID 0000.0001) %MON dynstat_uvel_sd              =   0.0000000000000000E+00
(PID.TID 0000.0001) %MON dynstat_uvel_del2            =   0.0000000000000000E+00
(PID.TID 0000.0001) %MON dynstat_vvel_max             =   0.0000000000000000E+00
(PID.TID 0000.0001) %MON dynstat_vvel_min             =   0.0000000000000000E+00
(PID.TID 0000.0001) %MON dynstat_vvel_mean            =   0.0000000000000000E+00
(PID.TID 0000.0001) %MON dynstat_vvel_sd              =   0.0000000000000000E+00
(PID.TID 0000.0001) %MON dynstat_vvel_del2            =   0.0000000000000000E+00
(PID.TID 0000.0001) %MON dynstat_wvel_max             =   0.0000000000000000E+00
(PID.TID 0000.0001) %MON dynstat_wvel_min             =   0.0000000000000000E+00
(PID.TID 0000.0001) %MON dynstat_wvel_mean            =   0.0000000000000000E+00
(PID.TID 0000.0001) %MON dynstat_wvel_sd              =   0.0000000000000000E+00
(PID.TID 0000.0001) %MON dynstat_wvel_del2            =   0.0000000000000000E+00
(PID.TID 0000.0001) %MON dynstat_theta_max            =   8.2977504730224609E+00
(PID.TID 0000.0001) %MON dynstat_theta_min            =   1.5167000293731689E+00
(PID.TID 0000.0001) %MON dynstat_theta_mean           =   2.8239317499687400E+00
(PID.TID 0000.0001) %MON dynstat_theta_sd             =   1.3644468593155439E+00
(PID.TID 0000.0001) %MON dynstat_theta_del2           =   0.0000000000000000E+00
(PID.TID 0000.0001) %MON dynstat_salt_max             =   3.5000000000000000E+01
(PID.TID 0000.0001) %MON dynstat_salt_min             =   3.5000000000000000E+01
(PID.TID 0000.0001) %MON dynstat_salt_mean            =   3.4999999999999986E+01
(PID.TID 0000.0001) %MON dynstat_salt_sd              =   1.4210854715202004E-14
(PID.TID 0000.0001) %MON dynstat_salt_del2            =   0.0000000000000000E+00
(PID.TID 0000.0001) %MON dynstat_sst_max              =   8.2959995269775391E+00
(PID.TID 0000.0001) %MON dynstat_sst_min              =   8.2959995269775391E+00
(PID.TID 0000.0001) %MON dynstat_sst_mean             =   8.2959995269775391E+00
(PID.TID 0000.0001) %MON dynstat_sst_sd               =   0.0000000000000000E+00
(PID.TID 0000.0001) %MON dynstat_sst_del2             =   0.0000000000000000E+00
(PID.TID 0000.0001) %MON dynstat_sss_max              =   3.5000000000000000E+01
(PID.TID 0000.0001) %MON dynstat_sss_min              =   3.5000000000000000E+01
(PID.TID 0000.0001) %MON dynstat_sss_mean             =   3.5000000000000000E+01
(PID.TID 0000.0001) %MON dynstat_sss_sd               =   0.0000000000000000E+00
(PID.TID 0000.0001) %MON dynstat_sss_del2             =   0.0000000000000000E+00
(PID.TID 0000.0001) %MON forcing_qnet_max             =   0.0000000000000000E+00
(PID.TID 0000.0001) %MON forcing_qnet_min             =   0.0000000000000000E+00
(PID.TID 0000.0001) %MON forcing_qnet_mean            =   0.0000000000000000E+00
(PID.TID 0000.0001) %MON forcing_qnet_sd              =   0.0000000000000000E+00
(PID.TID 0000.0001) %MON forcing_qnet_del2            =   0.0000000000000000E+00
(PID.TID 0000.0001) %MON forcing_qsw_max              =   0.0000000000000000E+00
(PID.TID 0000.0001) %MON forcing_qsw_min              =   0.0000000000000000E+00
(PID.TID 0000.0001) %MON forcing_qsw_mean             =   0.0000000000000000E+00
(PID.TID 0000.0001) %MON forcing_qsw_sd               =   0.0000000000000000E+00
(PID.TID 0000.0001) %MON forcing_qsw_del2             =   0.0000000000000000E+00
(PID.TID 0000.0001) %MON forcing_empmr_max            =   0.0000000000000000E+00
(PID.TID 0000.0001) %MON forcing_empmr_min            =   0.0000000000000000E+00
(PID.TID 0000.0001) %MON forcing_empmr_mean           =   0.0000000000000000E+00
(PID.TID 0000.0001) %MON forcing_empmr_sd             =   0.0000000000000000E+00
(PID.TID 0000.0001) %MON forcing_empmr_del2           =   0.0000000000000000E+00
(PID.TID 0000.0001) %MON forcing_fu_max               =   2.3210000991821289E+00
(PID.TID 0000.0001) %MON forcing_fu_min               =   2.3210000991821289E+00
(PID.TID 0000.0001) %MON forcing_fu_mean              =   2.3210000991821289E+00
(PID.TID 0000.0001) %MON forcing_fu_sd                =   0.0000000000000000E+00
(PID.TID 0000.0001) %MON forcing_fu_del2              =   0.0000000000000000E+00
(PID.TID 0000.0001) %MON forcing_fv_max               =  -4.5800000429153442E-01
(PID.TID 0000.0001) %MON forcing_fv_min               =  -4.5800000429153442E-01
(PID.TID 0000.0001) %MON forcing_fv_mean              =  -4.5800000429153448E-01
(PID.TID 0000.0001) %MON forcing_fv_sd                =   5.5511151231257827E-17
(PID.TID 0000.0001) %MON forcing_fv_del2              =   0.0000000000000000E+00
(PID.TID 0000.0001) %MON advcfl_uvel_max              =   0.0000000000000000E+00
(PID.TID 0000.0001) %MON advcfl_vvel_max              =   0.0000000000000000E+00
(PID.TID 0000.0001) %MON advcfl_wvel_max              =   0.0000000000000000E+00
(PID.TID 0000.0001) %MON advcfl_W_hf_max              =   0.0000000000000000E+00
(PID.TID 0000.0001) %MON pe_b_mean                    =   0.0000000000000000E+00
(PID.TID 0000.0001) %MON ke_max                       =   0.0000000000000000E+00
(PID.TID 0000.0001) %MON ke_mean                      =   0.0000000000000000E+00
(PID.TID 0000.0001) %MON ke_vol                       =   3.0811817830111180E+13
(PID.TID 0000.0001) %MON vort_r_min                   =   0.0000000000000000E+00
(PID.TID 0000.0001) %MON vort_r_max                   =   0.0000000000000000E+00
(PID.TID 0000.0001) %MON vort_a_mean                  =  -1.0312619976227577E-04
(PID.TID 0000.0001) %MON vort_a_sd                    =   2.8760747774580336E-12
(PID.TID 0000.0001) %MON vort_p_mean                  =  -1.0312619976227577E-04
(PID.TID 0000.0001) %MON vort_p_sd                    =   2.8760747774580336E-12
(PID.TID 0000.0001) %MON surfExpan_theta_mean         =   0.0000000000000000E+00
(PID.TID 0000.0001) %MON surfExpan_salt_mean          =   0.0000000000000000E+00
(PID.TID 0000.0001) // =======================================================
(PID.TID 0000.0001) // End MONITOR dynamic field statistics
(PID.TID 0000.0001) // =======================================================
(PID.TID 0000.0001) // =======================================================
(PID.TID 0000.0001) // Begin MONITOR ptracer field statistics
(PID.TID 0000.0001) // =======================================================
(PID.TID 0000.0001) %MON trcstat_ptracer01_max        =   2.2359128417968750E+03
(PID.TID 0000.0001) %MON trcstat_ptracer01_min        =   2.0708164062500000E+03
(PID.TID 0000.0001) %MON trcstat_ptracer01_mean       =   2.2089819639803509E+03
(PID.TID 0000.0001) %MON trcstat_ptracer01_sd         =   4.0007771244450936E+01
(PID.TID 0000.0001) %MON trcstat_ptracer01_del2       =   0.0000000000000000E+00
(PID.TID 0000.0001) %MON trcstat_ptracer02_max        =   3.5487464070320129E-01
(PID.TID 0000.0001) %MON trcstat_ptracer02_min        =   3.2879972422961146E-05
(PID.TID 0000.0001) %MON trcstat_ptracer02_mean       =   6.1590829592050545E-03
(PID.TID 0000.0001) %MON trcstat_ptracer02_sd         =   4.2030743534085271E-02
(PID.TID 0000.0001) %MON trcstat_ptracer02_del2       =   0.0000000000000000E+00
(PID.TID 0000.0001) %MON trcstat_ptracer03_max        =   2.5541624426841736E-01
(PID.TID 0000.0001) %MON trcstat_ptracer03_min        =   6.6233676625415683E-04
(PID.TID 0000.0001) %MON trcstat_ptracer03_mean       =   1.7433212526097287E-02
(PID.TID 0000.0001) %MON trcstat_ptracer03_sd         =   3.7085179302057542E-02
(PID.TID 0000.0001) %MON trcstat_ptracer03_del2       =   0.0000000000000000E+00
(PID.TID 0000.0001) %MON trcstat_ptracer04_max        =   3.4239032745361328E+01
(PID.TID 0000.0001) %MON trcstat_ptracer04_min        =   1.4353099822998047E+01
(PID.TID 0000.0001) %MON trcstat_ptracer04_mean       =   2.9892435908829189E+01
(PID.TID 0000.0001) %MON trcstat_ptracer04_sd         =   3.8826433048366398E+00
(PID.TID 0000.0001) %MON trcstat_ptracer04_del2       =   0.0000000000000000E+00
(PID.TID 0000.0001) %MON trcstat_ptracer05_max        =   2.3348040580749512E+00
(PID.TID 0000.0001) %MON trcstat_ptracer05_min        =   1.1924467086791992E+00
(PID.TID 0000.0001) %MON trcstat_ptracer05_mean       =   2.0209448864531616E+00
(PID.TID 0000.0001) %MON trcstat_ptracer05_sd         =   2.4243584867596490E-01
(PID.TID 0000.0001) %MON trcstat_ptracer05_del2       =   0.0000000000000000E+00
(PID.TID 0000.0001) %MON trcstat_ptracer06_max        =   9.3254089355468750E+01
(PID.TID 0000.0001) %MON trcstat_ptracer06_min        =   3.3668999671936035E+00
(PID.TID 0000.0001) %MON trcstat_ptracer06_mean       =   6.1182524106021596E+01
(PID.TID 0000.0001) %MON trcstat_ptracer06_sd         =   2.6240968294013943E+01
(PID.TID 0000.0001) %MON trcstat_ptracer06_del2       =   0.0000000000000000E+00
(PID.TID 0000.0001) %MON trcstat_ptracer07_max        =   9.2528306413441896E-04
(PID.TID 0000.0001) %MON trcstat_ptracer07_min        =   2.5511176318104845E-06
(PID.TID 0000.0001) %MON trcstat_ptracer07_mean       =   6.3719613414789616E-04
(PID.TID 0000.0001) %MON trcstat_ptracer07_sd         =   1.9801490542020760E-04
(PID.TID 0000.0001) %MON trcstat_ptracer07_del2       =   0.0000000000000000E+00
(PID.TID 0000.0001) %MON trcstat_ptracer08_max        =   1.2577779769897461E+01
(PID.TID 0000.0001) %MON trcstat_ptracer08_min        =   6.8111409845528215E-09
(PID.TID 0000.0001) %MON trcstat_ptracer08_mean       =   5.3464270055665741E-01
(PID.TID 0000.0001) %MON trcstat_ptracer08_sd         =   1.9414767720009294E+00
(PID.TID 0000.0001) %MON trcstat_ptracer08_del2       =   0.0000000000000000E+00
(PID.TID 0000.0001) %MON trcstat_ptracer09_max        =   1.6770923137664795E+00
(PID.TID 0000.0001) %MON trcstat_ptracer09_min        =   9.0815516218256676E-10
(PID.TID 0000.0001) %MON trcstat_ptracer09_mean       =   7.1289554911815808E-02
(PID.TID 0000.0001) %MON trcstat_ptracer09_sd         =   2.5887518164364470E-01
(PID.TID 0000.0001) %MON trcstat_ptracer09_del2       =   0.0000000000000000E+00
(PID.TID 0000.0001) %MON trcstat_ptracer10_max        =   1.0481483489274979E-01
(PID.TID 0000.0001) %MON trcstat_ptracer10_min        =   5.6759506816828065E-11
(PID.TID 0000.0001) %MON trcstat_ptracer10_mean       =   4.4553559108483822E-03
(PID.TID 0000.0001) %MON trcstat_ptracer10_sd         =   1.6178973425221958E-02
(PID.TID 0000.0001) %MON trcstat_ptracer10_del2       =   0.0000000000000000E+00
(PID.TID 0000.0001) %MON trcstat_ptracer11_max        =   1.0482160723768175E-04
(PID.TID 0000.0001) %MON trcstat_ptracer11_min        =   5.6759887859681585E-14
(PID.TID 0000.0001) %MON trcstat_ptracer11_mean       =   4.4558321221052820E-06
(PID.TID 0000.0001) %MON trcstat_ptracer11_sd         =   1.6180403193302615E-05
(PID.TID 0000.0001) %MON trcstat_ptracer11_del2       =   0.0000000000000000E+00
(PID.TID 0000.0001) %MON trcstat_ptracer12_max        =   1.2606523036956787E+00
(PID.TID 0000.0001) %MON trcstat_ptracer12_min        =   4.6332214027643204E-02
(PID.TID 0000.0001) %MON trcstat_ptracer12_mean       =   4.6889322904472863E-01
(PID.TID 0000.0001) %MON trcstat_ptracer12_sd         =   4.4427307704611257E-01
(PID.TID 0000.0001) %MON trcstat_ptracer12_del2       =   0.0000000000000000E+00
(PID.TID 0000.0001) %MON trcstat_ptracer13_max        =   1.6808715462684631E-01
(PID.TID 0000.0001) %MON trcstat_ptracer13_min        =   6.1796545051038265E-03
(PID.TID 0000.0001) %MON trcstat_ptracer13_mean       =   6.2521437923816980E-02
(PID.TID 0000.0001) %MON trcstat_ptracer13_sd         =   5.9235406113365106E-02
(PID.TID 0000.0001) %MON trcstat_ptracer13_del2       =   0.0000000000000000E+00
(PID.TID 0000.0001) %MON trcstat_ptracer14_max        =   1.0505435988306999E-02
(PID.TID 0000.0001) %MON trcstat_ptracer14_min        =   3.8610177580267191E-04
(PID.TID 0000.0001) %MON trcstat_ptracer14_mean       =   3.9074435378444799E-03
(PID.TID 0000.0001) %MON trcstat_ptracer14_sd         =   3.7022755377606525E-03
(PID.TID 0000.0001) %MON trcstat_ptracer14_del2       =   0.0000000000000000E+00
(PID.TID 0000.0001) %MON trcstat_ptracer15_max        =   5.9371197223663330E-01
(PID.TID 0000.0001) %MON trcstat_ptracer15_min        =   7.1991190314292908E-02
(PID.TID 0000.0001) %MON trcstat_ptracer15_mean       =   3.0112536750382107E-01
(PID.TID 0000.0001) %MON trcstat_ptracer15_sd         =   1.6096191693698483E-01
(PID.TID 0000.0001) %MON trcstat_ptracer15_del2       =   0.0000000000000000E+00
(PID.TID 0000.0001) %MON trcstat_ptracer16_max        =   1.0505459613341372E-05
(PID.TID 0000.0001) %MON trcstat_ptracer16_min        =   3.8635710097878473E-07
(PID.TID 0000.0001) %MON trcstat_ptracer16_mean       =   3.9077393276252102E-06
(PID.TID 0000.0001) %MON trcstat_ptracer16_sd         =   3.7021481588347600E-06
(PID.TID 0000.0001) %MON trcstat_ptracer16_del2       =   0.0000000000000000E+00
(PID.TID 0000.0001) %MON trcstat_ptracer17_max        =   8.2691237330436707E-02
(PID.TID 0000.0001) %MON trcstat_ptracer17_min        =   3.9069196209311485E-03
(PID.TID 0000.0001) %MON trcstat_ptracer17_mean       =   5.5125630900359698E-02
(PID.TID 0000.0001) %MON trcstat_ptracer17_sd         =   1.7494486035040946E-02
(PID.TID 0000.0001) %MON trcstat_ptracer17_del2       =   0.0000000000000000E+00
(PID.TID 0000.0001) %MON trcstat_ptracer18_max        =   2.3510737304687500E+03
(PID.TID 0000.0001) %MON trcstat_ptracer18_min        =   2.2762221679687500E+03
(PID.TID 0000.0001) %MON trcstat_ptracer18_mean       =   2.3233194693591286E+03
(PID.TID 0000.0001) %MON trcstat_ptracer18_sd         =   2.5001036975940877E+01
(PID.TID 0000.0001) %MON trcstat_ptracer18_del2       =   0.0000000000000000E+00
(PID.TID 0000.0001) %MON trcstat_ptracer19_max        =   6.5236597061157227E+00
(PID.TID 0000.0001) %MON trcstat_ptracer19_min        =   4.3193750381469727E+00
(PID.TID 0000.0001) %MON trcstat_ptracer19_mean       =   4.9713976870961112E+00
(PID.TID 0000.0001) %MON trcstat_ptracer19_sd         =   5.3679753348386261E-01
(PID.TID 0000.0001) %MON trcstat_ptracer19_del2       =   0.0000000000000000E+00
(PID.TID 0000.0001) %MON trcstat_ptracer20_max        =   5.5191346909850836E-02
(PID.TID 0000.0001) %MON trcstat_ptracer20_min        =   1.5288460417650640E-05
(PID.TID 0000.0001) %MON trcstat_ptracer20_mean       =   1.9178711352050455E-03
(PID.TID 0000.0001) %MON trcstat_ptracer20_sd         =   9.5333655347776200E-03
(PID.TID 0000.0001) %MON trcstat_ptracer20_del2       =   0.0000000000000000E+00
(PID.TID 0000.0001) %MON trcstat_ptracer21_max        =   5.5191346909850836E-02
(PID.TID 0000.0001) %MON trcstat_ptracer21_min        =   1.5288460417650640E-05
(PID.TID 0000.0001) %MON trcstat_ptracer21_mean       =   1.9178711352050455E-03
(PID.TID 0000.0001) %MON trcstat_ptracer21_sd         =   9.5333655347776200E-03
(PID.TID 0000.0001) %MON trcstat_ptracer21_del2       =   0.0000000000000000E+00
(PID.TID 0000.0001) %MON trcstat_ptracer22_max        =   5.5191346909850836E-02
(PID.TID 0000.0001) %MON trcstat_ptracer22_min        =   1.5288460417650640E-05
(PID.TID 0000.0001) %MON trcstat_ptracer22_mean       =   1.9178711352050455E-03
(PID.TID 0000.0001) %MON trcstat_ptracer22_sd         =   9.5333655347776200E-03
(PID.TID 0000.0001) %MON trcstat_ptracer22_del2       =   0.0000000000000000E+00
(PID.TID 0000.0001) %MON trcstat_ptracer23_max        =   5.5191346909850836E-02
(PID.TID 0000.0001) %MON trcstat_ptracer23_min        =   1.5288460417650640E-05
(PID.TID 0000.0001) %MON trcstat_ptracer23_mean       =   1.9178711352050455E-03
(PID.TID 0000.0001) %MON trcstat_ptracer23_sd         =   9.5333655347776200E-03
(PID.TID 0000.0001) %MON trcstat_ptracer23_del2       =   0.0000000000000000E+00
(PID.TID 0000.0001) %MON trcstat_ptracer24_max        =   5.5191346909850836E-03
(PID.TID 0000.0001) %MON trcstat_ptracer24_min        =   1.5288460417650640E-06
(PID.TID 0000.0001) %MON trcstat_ptracer24_mean       =   1.9178711352050469E-04
(PID.TID 0000.0001) %MON trcstat_ptracer24_sd         =   9.5333655347776215E-04
(PID.TID 0000.0001) %MON trcstat_ptracer24_del2       =   0.0000000000000000E+00
(PID.TID 0000.0001) %MON trcstat_ptracer25_max        =   5.5191346909850836E-02
(PID.TID 0000.0001) %MON trcstat_ptracer25_min        =   1.5288460417650640E-05
(PID.TID 0000.0001) %MON trcstat_ptracer25_mean       =   1.9178711352050455E-03
(PID.TID 0000.0001) %MON trcstat_ptracer25_sd         =   9.5333655347776200E-03
(PID.TID 0000.0001) %MON trcstat_ptracer25_del2       =   0.0000000000000000E+00
(PID.TID 0000.0001) %MON trcstat_ptracer26_max        =   5.5191346909850836E-02
(PID.TID 0000.0001) %MON trcstat_ptracer26_min        =   1.5288460417650640E-05
(PID.TID 0000.0001) %MON trcstat_ptracer26_mean       =   1.9178711352050455E-03
(PID.TID 0000.0001) %MON trcstat_ptracer26_sd         =   9.5333655347776200E-03
(PID.TID 0000.0001) %MON trcstat_ptracer26_del2       =   0.0000000000000000E+00
(PID.TID 0000.0001) %MON trcstat_ptracer27_max        =   5.5191346909850836E-03
(PID.TID 0000.0001) %MON trcstat_ptracer27_min        =   1.5288460417650640E-06
(PID.TID 0000.0001) %MON trcstat_ptracer27_mean       =   1.9178711352050469E-04
(PID.TID 0000.0001) %MON trcstat_ptracer27_sd         =   9.5333655347776215E-04
(PID.TID 0000.0001) %MON trcstat_ptracer27_del2       =   0.0000000000000000E+00
(PID.TID 0000.0001) %MON trcstat_ptracer28_max        =   5.5191346909850836E-02
(PID.TID 0000.0001) %MON trcstat_ptracer28_min        =   1.5288460417650640E-05
(PID.TID 0000.0001) %MON trcstat_ptracer28_mean       =   1.9178711352050455E-03
(PID.TID 0000.0001) %MON trcstat_ptracer28_sd         =   9.5333655347776200E-03
(PID.TID 0000.0001) %MON trcstat_ptracer28_del2       =   0.0000000000000000E+00
(PID.TID 0000.0001) %MON trcstat_ptracer29_max        =   5.5191346909850836E-02
(PID.TID 0000.0001) %MON trcstat_ptracer29_min        =   1.5288460417650640E-05
(PID.TID 0000.0001) %MON trcstat_ptracer29_mean       =   1.9178711352050455E-03
(PID.TID 0000.0001) %MON trcstat_ptracer29_sd         =   9.5333655347776200E-03
(PID.TID 0000.0001) %MON trcstat_ptracer29_del2       =   0.0000000000000000E+00
(PID.TID 0000.0001) %MON trcstat_ptracer30_max        =   5.5191346909850836E-03
(PID.TID 0000.0001) %MON trcstat_ptracer30_min        =   1.5288460417650640E-06
(PID.TID 0000.0001) %MON trcstat_ptracer30_mean       =   1.9178711352050469E-04
(PID.TID 0000.0001) %MON trcstat_ptracer30_sd         =   9.5333655347776215E-04
(PID.TID 0000.0001) %MON trcstat_ptracer30_del2       =   0.0000000000000000E+00
(PID.TID 0000.0001) %MON trcstat_ptracer31_max        =   5.5191346909850836E-02
(PID.TID 0000.0001) %MON trcstat_ptracer31_min        =   1.5288460417650640E-05
(PID.TID 0000.0001) %MON trcstat_ptracer31_mean       =   1.9178711352050455E-03
(PID.TID 0000.0001) %MON trcstat_ptracer31_sd         =   9.5333655347776200E-03
(PID.TID 0000.0001) %MON trcstat_ptracer31_del2       =   0.0000000000000000E+00
(PID.TID 0000.0001) %MON trcstat_ptracer32_max        =   5.5191346909850836E-02
(PID.TID 0000.0001) %MON trcstat_ptracer32_min        =   1.5288460417650640E-05
(PID.TID 0000.0001) %MON trcstat_ptracer32_mean       =   1.9178711352050455E-03
(PID.TID 0000.0001) %MON trcstat_ptracer32_sd         =   9.5333655347776200E-03
(PID.TID 0000.0001) %MON trcstat_ptracer32_del2       =   0.0000000000000000E+00
(PID.TID 0000.0001) %MON trcstat_ptracer33_max        =   5.5191346909850836E-03
(PID.TID 0000.0001) %MON trcstat_ptracer33_min        =   1.5288460417650640E-06
(PID.TID 0000.0001) %MON trcstat_ptracer33_mean       =   1.9178711352050469E-04
(PID.TID 0000.0001) %MON trcstat_ptracer33_sd         =   9.5333655347776215E-04
(PID.TID 0000.0001) %MON trcstat_ptracer33_del2       =   0.0000000000000000E+00
(PID.TID 0000.0001) %MON trcstat_ptracer34_max        =   5.5191346909850836E-02
(PID.TID 0000.0001) %MON trcstat_ptracer34_min        =   1.5288460417650640E-05
(PID.TID 0000.0001) %MON trcstat_ptracer34_mean       =   1.9178711352050455E-03
(PID.TID 0000.0001) %MON trcstat_ptracer34_sd         =   9.5333655347776200E-03
(PID.TID 0000.0001) %MON trcstat_ptracer34_del2       =   0.0000000000000000E+00
(PID.TID 0000.0001) %MON trcstat_ptracer35_max        =   5.5191346909850836E-02
(PID.TID 0000.0001) %MON trcstat_ptracer35_min        =   1.5288460417650640E-05
(PID.TID 0000.0001) %MON trcstat_ptracer35_mean       =   1.9178711352050455E-03
(PID.TID 0000.0001) %MON trcstat_ptracer35_sd         =   9.5333655347776200E-03
(PID.TID 0000.0001) %MON trcstat_ptracer35_del2       =   0.0000000000000000E+00
(PID.TID 0000.0001) %MON trcstat_ptracer36_max        =   5.5191346909850836E-03
(PID.TID 0000.0001) %MON trcstat_ptracer36_min        =   1.5288460417650640E-06
(PID.TID 0000.0001) %MON trcstat_ptracer36_mean       =   1.9178711352050469E-04
(PID.TID 0000.0001) %MON trcstat_ptracer36_sd         =   9.5333655347776215E-04
(PID.TID 0000.0001) %MON trcstat_ptracer36_del2       =   0.0000000000000000E+00
(PID.TID 0000.0001) %MON trcstat_ptracer37_max        =   5.5191346909850836E-02
(PID.TID 0000.0001) %MON trcstat_ptracer37_min        =   1.5288460417650640E-05
(PID.TID 0000.0001) %MON trcstat_ptracer37_mean       =   1.9178711352050455E-03
(PID.TID 0000.0001) %MON trcstat_ptracer37_sd         =   9.5333655347776200E-03
(PID.TID 0000.0001) %MON trcstat_ptracer37_del2       =   0.0000000000000000E+00
(PID.TID 0000.0001) %MON trcstat_ptracer38_max        =   5.5191346909850836E-02
(PID.TID 0000.0001) %MON trcstat_ptracer38_min        =   1.5288460417650640E-05
(PID.TID 0000.0001) %MON trcstat_ptracer38_mean       =   1.9178711352050455E-03
(PID.TID 0000.0001) %MON trcstat_ptracer38_sd         =   9.5333655347776200E-03
(PID.TID 0000.0001) %MON trcstat_ptracer38_del2       =   0.0000000000000000E+00
(PID.TID 0000.0001) %MON trcstat_ptracer39_max        =   5.5191346909850836E-02
(PID.TID 0000.0001) %MON trcstat_ptracer39_min        =   1.5288460417650640E-05
(PID.TID 0000.0001) %MON trcstat_ptracer39_mean       =   1.9178711352050455E-03
(PID.TID 0000.0001) %MON trcstat_ptracer39_sd         =   9.5333655347776200E-03
(PID.TID 0000.0001) %MON trcstat_ptracer39_del2       =   0.0000000000000000E+00
(PID.TID 0000.0001) %MON trcstat_ptracer40_max        =   5.5191346909850836E-02
(PID.TID 0000.0001) %MON trcstat_ptracer40_min        =   1.5288460417650640E-05
(PID.TID 0000.0001) %MON trcstat_ptracer40_mean       =   1.9178711352050455E-03
(PID.TID 0000.0001) %MON trcstat_ptracer40_sd         =   9.5333655347776200E-03
(PID.TID 0000.0001) %MON trcstat_ptracer40_del2       =   0.0000000000000000E+00
(PID.TID 0000.0001) %MON trcstat_ptracer41_max        =   5.5191346909850836E-02
(PID.TID 0000.0001) %MON trcstat_ptracer41_min        =   1.5288460417650640E-05
(PID.TID 0000.0001) %MON trcstat_ptracer41_mean       =   1.9178711352050455E-03
(PID.TID 0000.0001) %MON trcstat_ptracer41_sd         =   9.5333655347776200E-03
(PID.TID 0000.0001) %MON trcstat_ptracer41_del2       =   0.0000000000000000E+00
(PID.TID 0000.0001) %MON trcstat_ptracer42_max        =   5.5191346909850836E-02
(PID.TID 0000.0001) %MON trcstat_ptracer42_min        =   1.5288460417650640E-05
(PID.TID 0000.0001) %MON trcstat_ptracer42_mean       =   1.9178711352050455E-03
(PID.TID 0000.0001) %MON trcstat_ptracer42_sd         =   9.5333655347776200E-03
(PID.TID 0000.0001) %MON trcstat_ptracer42_del2       =   0.0000000000000000E+00
(PID.TID 0000.0001) %MON trcstat_ptracer43_max        =   5.5191346909850836E-02
(PID.TID 0000.0001) %MON trcstat_ptracer43_min        =   1.5288460417650640E-05
(PID.TID 0000.0001) %MON trcstat_ptracer43_mean       =   1.9178711352050455E-03
(PID.TID 0000.0001) %MON trcstat_ptracer43_sd         =   9.5333655347776200E-03
(PID.TID 0000.0001) %MON trcstat_ptracer43_del2       =   0.0000000000000000E+00
(PID.TID 0000.0001) %MON trcstat_ptracer44_max        =   5.5191346909850836E-02
(PID.TID 0000.0001) %MON trcstat_ptracer44_min        =   1.5288460417650640E-05
(PID.TID 0000.0001) %MON trcstat_ptracer44_mean       =   1.9178711352050455E-03
(PID.TID 0000.0001) %MON trcstat_ptracer44_sd         =   9.5333655347776200E-03
(PID.TID 0000.0001) %MON trcstat_ptracer44_del2       =   0.0000000000000000E+00
(PID.TID 0000.0001) %MON trcstat_ptracer45_max        =   5.5191346909850836E-02
(PID.TID 0000.0001) %MON trcstat_ptracer45_min        =   1.5288460417650640E-05
(PID.TID 0000.0001) %MON trcstat_ptracer45_mean       =   1.9178711352050455E-03
(PID.TID 0000.0001) %MON trcstat_ptracer45_sd         =   9.5333655347776200E-03
(PID.TID 0000.0001) %MON trcstat_ptracer45_del2       =   0.0000000000000000E+00
(PID.TID 0000.0001) %MON trcstat_ptracer46_max        =   5.5191346909850836E-02
(PID.TID 0000.0001) %MON trcstat_ptracer46_min        =   1.5288460417650640E-05
(PID.TID 0000.0001) %MON trcstat_ptracer46_mean       =   1.9178711352050455E-03
(PID.TID 0000.0001) %MON trcstat_ptracer46_sd         =   9.5333655347776200E-03
(PID.TID 0000.0001) %MON trcstat_ptracer46_del2       =   0.0000000000000000E+00
(PID.TID 0000.0001) %MON trcstat_ptracer47_max        =   5.5191346909850836E-02
(PID.TID 0000.0001) %MON trcstat_ptracer47_min        =   1.5288460417650640E-05
(PID.TID 0000.0001) %MON trcstat_ptracer47_mean       =   1.9178711352050455E-03
(PID.TID 0000.0001) %MON trcstat_ptracer47_sd         =   9.5333655347776200E-03
(PID.TID 0000.0001) %MON trcstat_ptracer47_del2       =   0.0000000000000000E+00
(PID.TID 0000.0001) %MON trcstat_ptracer48_max        =   5.5191346909850836E-02
(PID.TID 0000.0001) %MON trcstat_ptracer48_min        =   1.5288460417650640E-05
(PID.TID 0000.0001) %MON trcstat_ptracer48_mean       =   1.9178711352050455E-03
(PID.TID 0000.0001) %MON trcstat_ptracer48_sd         =   9.5333655347776200E-03
(PID.TID 0000.0001) %MON trcstat_ptracer48_del2       =   0.0000000000000000E+00
(PID.TID 0000.0001) %MON trcstat_ptracer49_max        =   5.5191346909850836E-02
(PID.TID 0000.0001) %MON trcstat_ptracer49_min        =   1.5288460417650640E-05
(PID.TID 0000.0001) %MON trcstat_ptracer49_mean       =   1.9178711352050455E-03
(PID.TID 0000.0001) %MON trcstat_ptracer49_sd         =   9.5333655347776200E-03
(PID.TID 0000.0001) %MON trcstat_ptracer49_del2       =   0.0000000000000000E+00
(PID.TID 0000.0001) %MON trcstat_ptracer50_max        =   5.5191346909850836E-02
(PID.TID 0000.0001) %MON trcstat_ptracer50_min        =   1.5288460417650640E-05
(PID.TID 0000.0001) %MON trcstat_ptracer50_mean       =   1.9178711352050455E-03
(PID.TID 0000.0001) %MON trcstat_ptracer50_sd         =   9.5333655347776200E-03
(PID.TID 0000.0001) %MON trcstat_ptracer50_del2       =   0.0000000000000000E+00
(PID.TID 0000.0001) %MON trcstat_ptracer51_max        =   5.5191346909850836E-02
(PID.TID 0000.0001) %MON trcstat_ptracer51_min        =   1.5288460417650640E-05
(PID.TID 0000.0001) %MON trcstat_ptracer51_mean       =   1.9178711352050455E-03
(PID.TID 0000.0001) %MON trcstat_ptracer51_sd         =   9.5333655347776200E-03
(PID.TID 0000.0001) %MON trcstat_ptracer51_del2       =   0.0000000000000000E+00
(PID.TID 0000.0001) %MON trcstat_ptracer52_max        =   5.5191346909850836E-02
(PID.TID 0000.0001) %MON trcstat_ptracer52_min        =   1.5288460417650640E-05
(PID.TID 0000.0001) %MON trcstat_ptracer52_mean       =   1.9178711352050455E-03
(PID.TID 0000.0001) %MON trcstat_ptracer52_sd         =   9.5333655347776200E-03
(PID.TID 0000.0001) %MON trcstat_ptracer52_del2       =   0.0000000000000000E+00
(PID.TID 0000.0001) %MON trcstat_ptracer53_max        =   5.5191346909850836E-02
(PID.TID 0000.0001) %MON trcstat_ptracer53_min        =   1.5288460417650640E-05
(PID.TID 0000.0001) %MON trcstat_ptracer53_mean       =   1.9178711352050455E-03
(PID.TID 0000.0001) %MON trcstat_ptracer53_sd         =   9.5333655347776200E-03
(PID.TID 0000.0001) %MON trcstat_ptracer53_del2       =   0.0000000000000000E+00
(PID.TID 0000.0001) %MON trcstat_ptracer54_max        =   5.5191346909850836E-02
(PID.TID 0000.0001) %MON trcstat_ptracer54_min        =   1.5288460417650640E-05
(PID.TID 0000.0001) %MON trcstat_ptracer54_mean       =   1.9178711352050455E-03
(PID.TID 0000.0001) %MON trcstat_ptracer54_sd         =   9.5333655347776200E-03
(PID.TID 0000.0001) %MON trcstat_ptracer54_del2       =   0.0000000000000000E+00
(PID.TID 0000.0001) %MON trcstat_ptracer55_max        =   5.5191346909850836E-02
(PID.TID 0000.0001) %MON trcstat_ptracer55_min        =   1.5288460417650640E-05
(PID.TID 0000.0001) %MON trcstat_ptracer55_mean       =   1.9178711352050455E-03
(PID.TID 0000.0001) %MON trcstat_ptracer55_sd         =   9.5333655347776200E-03
(PID.TID 0000.0001) %MON trcstat_ptracer55_del2       =   0.0000000000000000E+00
(PID.TID 0000.0001) %MON trcstat_ptracer56_max        =   5.5191346909850836E-02
(PID.TID 0000.0001) %MON trcstat_ptracer56_min        =   1.5288460417650640E-05
(PID.TID 0000.0001) %MON trcstat_ptracer56_mean       =   1.9178711352050455E-03
(PID.TID 0000.0001) %MON trcstat_ptracer56_sd         =   9.5333655347776200E-03
(PID.TID 0000.0001) %MON trcstat_ptracer56_del2       =   0.0000000000000000E+00
(PID.TID 0000.0001) %MON trcstat_ptracer57_max        =   5.5191346909850836E-02
(PID.TID 0000.0001) %MON trcstat_ptracer57_min        =   1.5288460417650640E-05
(PID.TID 0000.0001) %MON trcstat_ptracer57_mean       =   1.9178711352050455E-03
(PID.TID 0000.0001) %MON trcstat_ptracer57_sd         =   9.5333655347776200E-03
(PID.TID 0000.0001) %MON trcstat_ptracer57_del2       =   0.0000000000000000E+00
(PID.TID 0000.0001) %MON trcstat_ptracer58_max        =   7.3588462546467781E-03
(PID.TID 0000.0001) %MON trcstat_ptracer58_min        =   2.0384613890200853E-06
(PID.TID 0000.0001) %MON trcstat_ptracer58_mean       =   2.5571615136067287E-04
(PID.TID 0000.0001) %MON trcstat_ptracer58_sd         =   1.2711154046370161E-03
(PID.TID 0000.0001) %MON trcstat_ptracer58_del2       =   0.0000000000000000E+00
(PID.TID 0000.0001) %MON trcstat_ptracer59_max        =   7.3588462546467781E-03
(PID.TID 0000.0001) %MON trcstat_ptracer59_min        =   2.0384613890200853E-06
(PID.TID 0000.0001) %MON trcstat_ptracer59_mean       =   2.5571615136067287E-04
(PID.TID 0000.0001) %MON trcstat_ptracer59_sd         =   1.2711154046370161E-03
(PID.TID 0000.0001) %MON trcstat_ptracer59_del2       =   0.0000000000000000E+00
(PID.TID 0000.0001) %MON trcstat_ptracer60_max        =   7.3588462546467781E-03
(PID.TID 0000.0001) %MON trcstat_ptracer60_min        =   2.0384613890200853E-06
(PID.TID 0000.0001) %MON trcstat_ptracer60_mean       =   2.5571615136067287E-04
(PID.TID 0000.0001) %MON trcstat_ptracer60_sd         =   1.2711154046370161E-03
(PID.TID 0000.0001) %MON trcstat_ptracer60_del2       =   0.0000000000000000E+00
(PID.TID 0000.0001) %MON trcstat_ptracer61_max        =   7.3588462546467781E-03
(PID.TID 0000.0001) %MON trcstat_ptracer61_min        =   2.0384613890200853E-06
(PID.TID 0000.0001) %MON trcstat_ptracer61_mean       =   2.5571615136067287E-04
(PID.TID 0000.0001) %MON trcstat_ptracer61_sd         =   1.2711154046370161E-03
(PID.TID 0000.0001) %MON trcstat_ptracer61_del2       =   0.0000000000000000E+00
(PID.TID 0000.0001) %MON trcstat_ptracer62_max        =   1.8397115636616945E-03
(PID.TID 0000.0001) %MON trcstat_ptracer62_min        =   5.0961534725502133E-07
(PID.TID 0000.0001) %MON trcstat_ptracer62_mean       =   6.3929037840168218E-05
(PID.TID 0000.0001) %MON trcstat_ptracer62_sd         =   3.1777885115925403E-04
(PID.TID 0000.0001) %MON trcstat_ptracer62_del2       =   0.0000000000000000E+00
(PID.TID 0000.0001) %MON trcstat_ptracer63_max        =   7.3588462546467781E-03
(PID.TID 0000.0001) %MON trcstat_ptracer63_min        =   2.0384613890200853E-06
(PID.TID 0000.0001) %MON trcstat_ptracer63_mean       =   2.5571615136067287E-04
(PID.TID 0000.0001) %MON trcstat_ptracer63_sd         =   1.2711154046370161E-03
(PID.TID 0000.0001) %MON trcstat_ptracer63_del2       =   0.0000000000000000E+00
(PID.TID 0000.0001) %MON trcstat_ptracer64_max        =   7.3588462546467781E-03
(PID.TID 0000.0001) %MON trcstat_ptracer64_min        =   2.0384613890200853E-06
(PID.TID 0000.0001) %MON trcstat_ptracer64_mean       =   2.5571615136067287E-04
(PID.TID 0000.0001) %MON trcstat_ptracer64_sd         =   1.2711154046370161E-03
(PID.TID 0000.0001) %MON trcstat_ptracer64_del2       =   0.0000000000000000E+00
(PID.TID 0000.0001) %MON trcstat_ptracer65_max        =   1.8397115636616945E-03
(PID.TID 0000.0001) %MON trcstat_ptracer65_min        =   5.0961534725502133E-07
(PID.TID 0000.0001) %MON trcstat_ptracer65_mean       =   6.3929037840168218E-05
(PID.TID 0000.0001) %MON trcstat_ptracer65_sd         =   3.1777885115925403E-04
(PID.TID 0000.0001) %MON trcstat_ptracer65_del2       =   0.0000000000000000E+00
(PID.TID 0000.0001) %MON trcstat_ptracer66_max        =   7.3588462546467781E-03
(PID.TID 0000.0001) %MON trcstat_ptracer66_min        =   2.0384613890200853E-06
(PID.TID 0000.0001) %MON trcstat_ptracer66_mean       =   2.5571615136067287E-04
(PID.TID 0000.0001) %MON trcstat_ptracer66_sd         =   1.2711154046370161E-03
(PID.TID 0000.0001) %MON trcstat_ptracer66_del2       =   0.0000000000000000E+00
(PID.TID 0000.0001) %MON trcstat_ptracer67_max        =   7.3588462546467781E-03
(PID.TID 0000.0001) %MON trcstat_ptracer67_min        =   2.0384613890200853E-06
(PID.TID 0000.0001) %MON trcstat_ptracer67_mean       =   2.5571615136067287E-04
(PID.TID 0000.0001) %MON trcstat_ptracer67_sd         =   1.2711154046370161E-03
(PID.TID 0000.0001) %MON trcstat_ptracer67_del2       =   0.0000000000000000E+00
(PID.TID 0000.0001) %MON trcstat_ptracer68_max        =   1.8397115636616945E-03
(PID.TID 0000.0001) %MON trcstat_ptracer68_min        =   5.0961534725502133E-07
(PID.TID 0000.0001) %MON trcstat_ptracer68_mean       =   6.3929037840168218E-05
(PID.TID 0000.0001) %MON trcstat_ptracer68_sd         =   3.1777885115925403E-04
(PID.TID 0000.0001) %MON trcstat_ptracer68_del2       =   0.0000000000000000E+00
(PID.TID 0000.0001) %MON trcstat_ptracer69_max        =   7.3588462546467781E-03
(PID.TID 0000.0001) %MON trcstat_ptracer69_min        =   2.0384613890200853E-06
(PID.TID 0000.0001) %MON trcstat_ptracer69_mean       =   2.5571615136067287E-04
(PID.TID 0000.0001) %MON trcstat_ptracer69_sd         =   1.2711154046370161E-03
(PID.TID 0000.0001) %MON trcstat_ptracer69_del2       =   0.0000000000000000E+00
(PID.TID 0000.0001) %MON trcstat_ptracer70_max        =   7.3588462546467781E-03
(PID.TID 0000.0001) %MON trcstat_ptracer70_min        =   2.0384613890200853E-06
(PID.TID 0000.0001) %MON trcstat_ptracer70_mean       =   2.5571615136067287E-04
(PID.TID 0000.0001) %MON trcstat_ptracer70_sd         =   1.2711154046370161E-03
(PID.TID 0000.0001) %MON trcstat_ptracer70_del2       =   0.0000000000000000E+00
(PID.TID 0000.0001) %MON trcstat_ptracer71_max        =   1.8397115636616945E-03
(PID.TID 0000.0001) %MON trcstat_ptracer71_min        =   5.0961534725502133E-07
(PID.TID 0000.0001) %MON trcstat_ptracer71_mean       =   6.3929037840168218E-05
(PID.TID 0000.0001) %MON trcstat_ptracer71_sd         =   3.1777885115925403E-04
(PID.TID 0000.0001) %MON trcstat_ptracer71_del2       =   0.0000000000000000E+00
(PID.TID 0000.0001) %MON trcstat_ptracer72_max        =   7.3588462546467781E-03
(PID.TID 0000.0001) %MON trcstat_ptracer72_min        =   2.0384613890200853E-06
(PID.TID 0000.0001) %MON trcstat_ptracer72_mean       =   2.5571615136067287E-04
(PID.TID 0000.0001) %MON trcstat_ptracer72_sd         =   1.2711154046370161E-03
(PID.TID 0000.0001) %MON trcstat_ptracer72_del2       =   0.0000000000000000E+00
(PID.TID 0000.0001) %MON trcstat_ptracer73_max        =   7.3588462546467781E-03
(PID.TID 0000.0001) %MON trcstat_ptracer73_min        =   2.0384613890200853E-06
(PID.TID 0000.0001) %MON trcstat_ptracer73_mean       =   2.5571615136067287E-04
(PID.TID 0000.0001) %MON trcstat_ptracer73_sd         =   1.2711154046370161E-03
(PID.TID 0000.0001) %MON trcstat_ptracer73_del2       =   0.0000000000000000E+00
(PID.TID 0000.0001) %MON trcstat_ptracer74_max        =   1.8397115636616945E-03
(PID.TID 0000.0001) %MON trcstat_ptracer74_min        =   5.0961534725502133E-07
(PID.TID 0000.0001) %MON trcstat_ptracer74_mean       =   6.3929037840168218E-05
(PID.TID 0000.0001) %MON trcstat_ptracer74_sd         =   3.1777885115925403E-04
(PID.TID 0000.0001) %MON trcstat_ptracer74_del2       =   0.0000000000000000E+00
(PID.TID 0000.0001) %MON trcstat_ptracer75_max        =   7.3588462546467781E-03
(PID.TID 0000.0001) %MON trcstat_ptracer75_min        =   2.0384613890200853E-06
(PID.TID 0000.0001) %MON trcstat_ptracer75_mean       =   2.5571615136067287E-04
(PID.TID 0000.0001) %MON trcstat_ptracer75_sd         =   1.2711154046370161E-03
(PID.TID 0000.0001) %MON trcstat_ptracer75_del2       =   0.0000000000000000E+00
(PID.TID 0000.0001) %MON trcstat_ptracer76_max        =   7.3588462546467781E-03
(PID.TID 0000.0001) %MON trcstat_ptracer76_min        =   2.0384613890200853E-06
(PID.TID 0000.0001) %MON trcstat_ptracer76_mean       =   2.5571615136067287E-04
(PID.TID 0000.0001) %MON trcstat_ptracer76_sd         =   1.2711154046370161E-03
(PID.TID 0000.0001) %MON trcstat_ptracer76_del2       =   0.0000000000000000E+00
(PID.TID 0000.0001) %MON trcstat_ptracer77_max        =   7.3588462546467781E-03
(PID.TID 0000.0001) %MON trcstat_ptracer77_min        =   2.0384613890200853E-06
(PID.TID 0000.0001) %MON trcstat_ptracer77_mean       =   2.5571615136067287E-04
(PID.TID 0000.0001) %MON trcstat_ptracer77_sd         =   1.2711154046370161E-03
(PID.TID 0000.0001) %MON trcstat_ptracer77_del2       =   0.0000000000000000E+00
(PID.TID 0000.0001) %MON trcstat_ptracer78_max        =   7.3588462546467781E-03
(PID.TID 0000.0001) %MON trcstat_ptracer78_min        =   2.0384613890200853E-06
(PID.TID 0000.0001) %MON trcstat_ptracer78_mean       =   2.5571615136067287E-04
(PID.TID 0000.0001) %MON trcstat_ptracer78_sd         =   1.2711154046370161E-03
(PID.TID 0000.0001) %MON trcstat_ptracer78_del2       =   0.0000000000000000E+00
(PID.TID 0000.0001) %MON trcstat_ptracer79_max        =   7.3588462546467781E-03
(PID.TID 0000.0001) %MON trcstat_ptracer79_min        =   2.0384613890200853E-06
(PID.TID 0000.0001) %MON trcstat_ptracer79_mean       =   2.5571615136067287E-04
(PID.TID 0000.0001) %MON trcstat_ptracer79_sd         =   1.2711154046370161E-03
(PID.TID 0000.0001) %MON trcstat_ptracer79_del2       =   0.0000000000000000E+00
(PID.TID 0000.0001) %MON trcstat_ptracer80_max        =   7.3588462546467781E-03
(PID.TID 0000.0001) %MON trcstat_ptracer80_min        =   2.0384613890200853E-06
(PID.TID 0000.0001) %MON trcstat_ptracer80_mean       =   2.5571615136067287E-04
(PID.TID 0000.0001) %MON trcstat_ptracer80_sd         =   1.2711154046370161E-03
(PID.TID 0000.0001) %MON trcstat_ptracer80_del2       =   0.0000000000000000E+00
(PID.TID 0000.0001) %MON trcstat_ptracer81_max        =   7.3588462546467781E-03
(PID.TID 0000.0001) %MON trcstat_ptracer81_min        =   2.0384613890200853E-06
(PID.TID 0000.0001) %MON trcstat_ptracer81_mean       =   2.5571615136067287E-04
(PID.TID 0000.0001) %MON trcstat_ptracer81_sd         =   1.2711154046370161E-03
(PID.TID 0000.0001) %MON trcstat_ptracer81_del2       =   0.0000000000000000E+00
(PID.TID 0000.0001) %MON trcstat_ptracer82_max        =   7.3588462546467781E-03
(PID.TID 0000.0001) %MON trcstat_ptracer82_min        =   2.0384613890200853E-06
(PID.TID 0000.0001) %MON trcstat_ptracer82_mean       =   2.5571615136067287E-04
(PID.TID 0000.0001) %MON trcstat_ptracer82_sd         =   1.2711154046370161E-03
(PID.TID 0000.0001) %MON trcstat_ptracer82_del2       =   0.0000000000000000E+00
(PID.TID 0000.0001) %MON trcstat_ptracer83_max        =   7.3588462546467781E-03
(PID.TID 0000.0001) %MON trcstat_ptracer83_min        =   2.0384613890200853E-06
(PID.TID 0000.0001) %MON trcstat_ptracer83_mean       =   2.5571615136067287E-04
(PID.TID 0000.0001) %MON trcstat_ptracer83_sd         =   1.2711154046370161E-03
(PID.TID 0000.0001) %MON trcstat_ptracer83_del2       =   0.0000000000000000E+00
(PID.TID 0000.0001) %MON trcstat_ptracer84_max        =   7.3588462546467781E-03
(PID.TID 0000.0001) %MON trcstat_ptracer84_min        =   2.0384613890200853E-06
(PID.TID 0000.0001) %MON trcstat_ptracer84_mean       =   2.5571615136067287E-04
(PID.TID 0000.0001) %MON trcstat_ptracer84_sd         =   1.2711154046370161E-03
(PID.TID 0000.0001) %MON trcstat_ptracer84_del2       =   0.0000000000000000E+00
(PID.TID 0000.0001) %MON trcstat_ptracer85_max        =   7.3588462546467781E-03
(PID.TID 0000.0001) %MON trcstat_ptracer85_min        =   2.0384613890200853E-06
(PID.TID 0000.0001) %MON trcstat_ptracer85_mean       =   2.5571615136067287E-04
(PID.TID 0000.0001) %MON trcstat_ptracer85_sd         =   1.2711154046370161E-03
(PID.TID 0000.0001) %MON trcstat_ptracer85_del2       =   0.0000000000000000E+00
(PID.TID 0000.0001) %MON trcstat_ptracer86_max        =   7.3588462546467781E-03
(PID.TID 0000.0001) %MON trcstat_ptracer86_min        =   2.0384613890200853E-06
(PID.TID 0000.0001) %MON trcstat_ptracer86_mean       =   2.5571615136067287E-04
(PID.TID 0000.0001) %MON trcstat_ptracer86_sd         =   1.2711154046370161E-03
(PID.TID 0000.0001) %MON trcstat_ptracer86_del2       =   0.0000000000000000E+00
(PID.TID 0000.0001) %MON trcstat_ptracer87_max        =   7.3588462546467781E-03
(PID.TID 0000.0001) %MON trcstat_ptracer87_min        =   2.0384613890200853E-06
(PID.TID 0000.0001) %MON trcstat_ptracer87_mean       =   2.5571615136067287E-04
(PID.TID 0000.0001) %MON trcstat_ptracer87_sd         =   1.2711154046370161E-03
(PID.TID 0000.0001) %MON trcstat_ptracer87_del2       =   0.0000000000000000E+00
(PID.TID 0000.0001) %MON trcstat_ptracer88_max        =   7.3588462546467781E-03
(PID.TID 0000.0001) %MON trcstat_ptracer88_min        =   2.0384613890200853E-06
(PID.TID 0000.0001) %MON trcstat_ptracer88_mean       =   2.5571615136067287E-04
(PID.TID 0000.0001) %MON trcstat_ptracer88_sd         =   1.2711154046370161E-03
(PID.TID 0000.0001) %MON trcstat_ptracer88_del2       =   0.0000000000000000E+00
(PID.TID 0000.0001) %MON trcstat_ptracer89_max        =   7.3588462546467781E-03
(PID.TID 0000.0001) %MON trcstat_ptracer89_min        =   2.0384613890200853E-06
(PID.TID 0000.0001) %MON trcstat_ptracer89_mean       =   2.5571615136067287E-04
(PID.TID 0000.0001) %MON trcstat_ptracer89_sd         =   1.2711154046370161E-03
(PID.TID 0000.0001) %MON trcstat_ptracer89_del2       =   0.0000000000000000E+00
(PID.TID 0000.0001) %MON trcstat_ptracer90_max        =   7.3588462546467781E-03
(PID.TID 0000.0001) %MON trcstat_ptracer90_min        =   2.0384613890200853E-06
(PID.TID 0000.0001) %MON trcstat_ptracer90_mean       =   2.5571615136067287E-04
(PID.TID 0000.0001) %MON trcstat_ptracer90_sd         =   1.2711154046370161E-03
(PID.TID 0000.0001) %MON trcstat_ptracer90_del2       =   0.0000000000000000E+00
(PID.TID 0000.0001) %MON trcstat_ptracer91_max        =   7.3588462546467781E-03
(PID.TID 0000.0001) %MON trcstat_ptracer91_min        =   2.0384613890200853E-06
(PID.TID 0000.0001) %MON trcstat_ptracer91_mean       =   2.5571615136067287E-04
(PID.TID 0000.0001) %MON trcstat_ptracer91_sd         =   1.2711154046370161E-03
(PID.TID 0000.0001) %MON trcstat_ptracer91_del2       =   0.0000000000000000E+00
(PID.TID 0000.0001) %MON trcstat_ptracer92_max        =   7.3588462546467781E-03
(PID.TID 0000.0001) %MON trcstat_ptracer92_min        =   2.0384613890200853E-06
(PID.TID 0000.0001) %MON trcstat_ptracer92_mean       =   2.5571615136067287E-04
(PID.TID 0000.0001) %MON trcstat_ptracer92_sd         =   1.2711154046370161E-03
(PID.TID 0000.0001) %MON trcstat_ptracer92_del2       =   0.0000000000000000E+00
(PID.TID 0000.0001) %MON trcstat_ptracer93_max        =   7.3588462546467781E-03
(PID.TID 0000.0001) %MON trcstat_ptracer93_min        =   2.0384613890200853E-06
(PID.TID 0000.0001) %MON trcstat_ptracer93_mean       =   2.5571615136067287E-04
(PID.TID 0000.0001) %MON trcstat_ptracer93_sd         =   1.2711154046370161E-03
(PID.TID 0000.0001) %MON trcstat_ptracer93_del2       =   0.0000000000000000E+00
(PID.TID 0000.0001) %MON trcstat_ptracer94_max        =   7.3588462546467781E-03
(PID.TID 0000.0001) %MON trcstat_ptracer94_min        =   2.0384613890200853E-06
(PID.TID 0000.0001) %MON trcstat_ptracer94_mean       =   2.5571615136067287E-04
(PID.TID 0000.0001) %MON trcstat_ptracer94_sd         =   1.2711154046370161E-03
(PID.TID 0000.0001) %MON trcstat_ptracer94_del2       =   0.0000000000000000E+00
(PID.TID 0000.0001) %MON trcstat_ptracer95_max        =   7.3588462546467781E-03
(PID.TID 0000.0001) %MON trcstat_ptracer95_min        =   2.0384613890200853E-06
(PID.TID 0000.0001) %MON trcstat_ptracer95_mean       =   2.5571615136067287E-04
(PID.TID 0000.0001) %MON trcstat_ptracer95_sd         =   1.2711154046370161E-03
(PID.TID 0000.0001) %MON trcstat_ptracer95_del2       =   0.0000000000000000E+00
(PID.TID 0000.0001) %MON trcstat_ptracer96_max        =   4.5992789091542363E-04
(PID.TID 0000.0001) %MON trcstat_ptracer96_min        =   1.2740383681375533E-07
(PID.TID 0000.0001) %MON trcstat_ptracer96_mean       =   1.5982259460042055E-05
(PID.TID 0000.0001) %MON trcstat_ptracer96_sd         =   7.9444712789813508E-05
(PID.TID 0000.0001) %MON trcstat_ptracer96_del2       =   0.0000000000000000E+00
(PID.TID 0000.0001) %MON trcstat_ptracer97_max        =   4.5992789091542363E-04
(PID.TID 0000.0001) %MON trcstat_ptracer97_min        =   1.2740383681375533E-07
(PID.TID 0000.0001) %MON trcstat_ptracer97_mean       =   1.5982259460042055E-05
(PID.TID 0000.0001) %MON trcstat_ptracer97_sd         =   7.9444712789813508E-05
(PID.TID 0000.0001) %MON trcstat_ptracer97_del2       =   0.0000000000000000E+00
(PID.TID 0000.0001) %MON trcstat_ptracer98_max        =   4.5992789091542363E-04
(PID.TID 0000.0001) %MON trcstat_ptracer98_min        =   1.2740383681375533E-07
(PID.TID 0000.0001) %MON trcstat_ptracer98_mean       =   1.5982259460042055E-05
(PID.TID 0000.0001) %MON trcstat_ptracer98_sd         =   7.9444712789813508E-05
(PID.TID 0000.0001) %MON trcstat_ptracer98_del2       =   0.0000000000000000E+00
(PID.TID 0000.0001) %MON trcstat_ptracer99_max        =   4.5992789091542363E-04
(PID.TID 0000.0001) %MON trcstat_ptracer99_min        =   1.2740383681375533E-07
(PID.TID 0000.0001) %MON trcstat_ptracer99_mean       =   1.5982259460042055E-05
(PID.TID 0000.0001) %MON trcstat_ptracer99_sd         =   7.9444712789813508E-05
(PID.TID 0000.0001) %MON trcstat_ptracer99_del2       =   0.0000000000000000E+00
(PID.TID 0000.0001) %MON trcstat_ptracer0a_max        =   4.5992789091542369E-05
(PID.TID 0000.0001) %MON trcstat_ptracer0a_min        =   1.2740383681375534E-08
(PID.TID 0000.0001) %MON trcstat_ptracer0a_mean       =   1.5982259460042058E-06
(PID.TID 0000.0001) %MON trcstat_ptracer0a_sd         =   7.9444712789813539E-06
(PID.TID 0000.0001) %MON trcstat_ptracer0a_del2       =   0.0000000000000000E+00
(PID.TID 0000.0001) %MON trcstat_ptracer0b_max        =   4.5992789091542363E-04
(PID.TID 0000.0001) %MON trcstat_ptracer0b_min        =   1.2740383681375533E-07
(PID.TID 0000.0001) %MON trcstat_ptracer0b_mean       =   1.5982259460042055E-05
(PID.TID 0000.0001) %MON trcstat_ptracer0b_sd         =   7.9444712789813508E-05
(PID.TID 0000.0001) %MON trcstat_ptracer0b_del2       =   0.0000000000000000E+00
(PID.TID 0000.0001) %MON trcstat_ptracer0c_max        =   4.5992789091542363E-04
(PID.TID 0000.0001) %MON trcstat_ptracer0c_min        =   1.2740383681375533E-07
(PID.TID 0000.0001) %MON trcstat_ptracer0c_mean       =   1.5982259460042055E-05
(PID.TID 0000.0001) %MON trcstat_ptracer0c_sd         =   7.9444712789813508E-05
(PID.TID 0000.0001) %MON trcstat_ptracer0c_del2       =   0.0000000000000000E+00
(PID.TID 0000.0001) %MON trcstat_ptracer0d_max        =   4.5992789091542369E-05
(PID.TID 0000.0001) %MON trcstat_ptracer0d_min        =   1.2740383681375534E-08
(PID.TID 0000.0001) %MON trcstat_ptracer0d_mean       =   1.5982259460042058E-06
(PID.TID 0000.0001) %MON trcstat_ptracer0d_sd         =   7.9444712789813539E-06
(PID.TID 0000.0001) %MON trcstat_ptracer0d_del2       =   0.0000000000000000E+00
(PID.TID 0000.0001) %MON trcstat_ptracer0e_max        =   4.5992789091542363E-04
(PID.TID 0000.0001) %MON trcstat_ptracer0e_min        =   1.2740383681375533E-07
(PID.TID 0000.0001) %MON trcstat_ptracer0e_mean       =   1.5982259460042055E-05
(PID.TID 0000.0001) %MON trcstat_ptracer0e_sd         =   7.9444712789813508E-05
(PID.TID 0000.0001) %MON trcstat_ptracer0e_del2       =   0.0000000000000000E+00
(PID.TID 0000.0001) %MON trcstat_ptracer0f_max        =   4.5992789091542363E-04
(PID.TID 0000.0001) %MON trcstat_ptracer0f_min        =   1.2740383681375533E-07
(PID.TID 0000.0001) %MON trcstat_ptracer0f_mean       =   1.5982259460042055E-05
(PID.TID 0000.0001) %MON trcstat_ptracer0f_sd         =   7.9444712789813508E-05
(PID.TID 0000.0001) %MON trcstat_ptracer0f_del2       =   0.0000000000000000E+00
(PID.TID 0000.0001) %MON trcstat_ptracer0g_max        =   4.5992789091542369E-05
(PID.TID 0000.0001) %MON trcstat_ptracer0g_min        =   1.2740383681375534E-08
(PID.TID 0000.0001) %MON trcstat_ptracer0g_mean       =   1.5982259460042058E-06
(PID.TID 0000.0001) %MON trcstat_ptracer0g_sd         =   7.9444712789813539E-06
(PID.TID 0000.0001) %MON trcstat_ptracer0g_del2       =   0.0000000000000000E+00
(PID.TID 0000.0001) %MON trcstat_ptracer0h_max        =   4.5992789091542363E-04
(PID.TID 0000.0001) %MON trcstat_ptracer0h_min        =   1.2740383681375533E-07
(PID.TID 0000.0001) %MON trcstat_ptracer0h_mean       =   1.5982259460042055E-05
(PID.TID 0000.0001) %MON trcstat_ptracer0h_sd         =   7.9444712789813508E-05
(PID.TID 0000.0001) %MON trcstat_ptracer0h_del2       =   0.0000000000000000E+00
(PID.TID 0000.0001) %MON trcstat_ptracer0i_max        =   4.5992789091542363E-04
(PID.TID 0000.0001) %MON trcstat_ptracer0i_min        =   1.2740383681375533E-07
(PID.TID 0000.0001) %MON trcstat_ptracer0i_mean       =   1.5982259460042055E-05
(PID.TID 0000.0001) %MON trcstat_ptracer0i_sd         =   7.9444712789813508E-05
(PID.TID 0000.0001) %MON trcstat_ptracer0i_del2       =   0.0000000000000000E+00
(PID.TID 0000.0001) %MON trcstat_ptracer0j_max        =   4.5992789091542369E-05
(PID.TID 0000.0001) %MON trcstat_ptracer0j_min        =   1.2740383681375534E-08
(PID.TID 0000.0001) %MON trcstat_ptracer0j_mean       =   1.5982259460042058E-06
(PID.TID 0000.0001) %MON trcstat_ptracer0j_sd         =   7.9444712789813539E-06
(PID.TID 0000.0001) %MON trcstat_ptracer0j_del2       =   0.0000000000000000E+00
(PID.TID 0000.0001) %MON trcstat_ptracer0k_max        =   4.5992789091542363E-04
(PID.TID 0000.0001) %MON trcstat_ptracer0k_min        =   1.2740383681375533E-07
(PID.TID 0000.0001) %MON trcstat_ptracer0k_mean       =   1.5982259460042055E-05
(PID.TID 0000.0001) %MON trcstat_ptracer0k_sd         =   7.9444712789813508E-05
(PID.TID 0000.0001) %MON trcstat_ptracer0k_del2       =   0.0000000000000000E+00
(PID.TID 0000.0001) %MON trcstat_ptracer0l_max        =   4.5992789091542363E-04
(PID.TID 0000.0001) %MON trcstat_ptracer0l_min        =   1.2740383681375533E-07
(PID.TID 0000.0001) %MON trcstat_ptracer0l_mean       =   1.5982259460042055E-05
(PID.TID 0000.0001) %MON trcstat_ptracer0l_sd         =   7.9444712789813508E-05
(PID.TID 0000.0001) %MON trcstat_ptracer0l_del2       =   0.0000000000000000E+00
(PID.TID 0000.0001) %MON trcstat_ptracer0m_max        =   4.5992789091542369E-05
(PID.TID 0000.0001) %MON trcstat_ptracer0m_min        =   1.2740383681375534E-08
(PID.TID 0000.0001) %MON trcstat_ptracer0m_mean       =   1.5982259460042058E-06
(PID.TID 0000.0001) %MON trcstat_ptracer0m_sd         =   7.9444712789813539E-06
(PID.TID 0000.0001) %MON trcstat_ptracer0m_del2       =   0.0000000000000000E+00
(PID.TID 0000.0001) %MON trcstat_ptracer0n_max        =   4.5992789091542363E-04
(PID.TID 0000.0001) %MON trcstat_ptracer0n_min        =   1.2740383681375533E-07
(PID.TID 0000.0001) %MON trcstat_ptracer0n_mean       =   1.5982259460042055E-05
(PID.TID 0000.0001) %MON trcstat_ptracer0n_sd         =   7.9444712789813508E-05
(PID.TID 0000.0001) %MON trcstat_ptracer0n_del2       =   0.0000000000000000E+00
(PID.TID 0000.0001) %MON trcstat_ptracer0o_max        =   4.5992789091542363E-04
(PID.TID 0000.0001) %MON trcstat_ptracer0o_min        =   1.2740383681375533E-07
(PID.TID 0000.0001) %MON trcstat_ptracer0o_mean       =   1.5982259460042055E-05
(PID.TID 0000.0001) %MON trcstat_ptracer0o_sd         =   7.9444712789813508E-05
(PID.TID 0000.0001) %MON trcstat_ptracer0o_del2       =   0.0000000000000000E+00
(PID.TID 0000.0001) %MON trcstat_ptracer0p_max        =   4.5992789091542363E-04
(PID.TID 0000.0001) %MON trcstat_ptracer0p_min        =   1.2740383681375533E-07
(PID.TID 0000.0001) %MON trcstat_ptracer0p_mean       =   1.5982259460042055E-05
(PID.TID 0000.0001) %MON trcstat_ptracer0p_sd         =   7.9444712789813508E-05
(PID.TID 0000.0001) %MON trcstat_ptracer0p_del2       =   0.0000000000000000E+00
(PID.TID 0000.0001) %MON trcstat_ptracer0q_max        =   4.5992789091542363E-04
(PID.TID 0000.0001) %MON trcstat_ptracer0q_min        =   1.2740383681375533E-07
(PID.TID 0000.0001) %MON trcstat_ptracer0q_mean       =   1.5982259460042055E-05
(PID.TID 0000.0001) %MON trcstat_ptracer0q_sd         =   7.9444712789813508E-05
(PID.TID 0000.0001) %MON trcstat_ptracer0q_del2       =   0.0000000000000000E+00
(PID.TID 0000.0001) %MON trcstat_ptracer0r_max        =   4.5992789091542363E-04
(PID.TID 0000.0001) %MON trcstat_ptracer0r_min        =   1.2740383681375533E-07
(PID.TID 0000.0001) %MON trcstat_ptracer0r_mean       =   1.5982259460042055E-05
(PID.TID 0000.0001) %MON trcstat_ptracer0r_sd         =   7.9444712789813508E-05
(PID.TID 0000.0001) %MON trcstat_ptracer0r_del2       =   0.0000000000000000E+00
(PID.TID 0000.0001) %MON trcstat_ptracer0s_max        =   4.5992789091542363E-04
(PID.TID 0000.0001) %MON trcstat_ptracer0s_min        =   1.2740383681375533E-07
(PID.TID 0000.0001) %MON trcstat_ptracer0s_mean       =   1.5982259460042055E-05
(PID.TID 0000.0001) %MON trcstat_ptracer0s_sd         =   7.9444712789813508E-05
(PID.TID 0000.0001) %MON trcstat_ptracer0s_del2       =   0.0000000000000000E+00
(PID.TID 0000.0001) %MON trcstat_ptracer0t_max        =   4.5992789091542363E-04
(PID.TID 0000.0001) %MON trcstat_ptracer0t_min        =   1.2740383681375533E-07
(PID.TID 0000.0001) %MON trcstat_ptracer0t_mean       =   1.5982259460042055E-05
(PID.TID 0000.0001) %MON trcstat_ptracer0t_sd         =   7.9444712789813508E-05
(PID.TID 0000.0001) %MON trcstat_ptracer0t_del2       =   0.0000000000000000E+00
(PID.TID 0000.0001) %MON trcstat_ptracer0u_max        =   4.5992789091542363E-04
(PID.TID 0000.0001) %MON trcstat_ptracer0u_min        =   1.2740383681375533E-07
(PID.TID 0000.0001) %MON trcstat_ptracer0u_mean       =   1.5982259460042055E-05
(PID.TID 0000.0001) %MON trcstat_ptracer0u_sd         =   7.9444712789813508E-05
(PID.TID 0000.0001) %MON trcstat_ptracer0u_del2       =   0.0000000000000000E+00
(PID.TID 0000.0001) %MON trcstat_ptracer0v_max        =   4.5992789091542363E-04
(PID.TID 0000.0001) %MON trcstat_ptracer0v_min        =   1.2740383681375533E-07
(PID.TID 0000.0001) %MON trcstat_ptracer0v_mean       =   1.5982259460042055E-05
(PID.TID 0000.0001) %MON trcstat_ptracer0v_sd         =   7.9444712789813508E-05
(PID.TID 0000.0001) %MON trcstat_ptracer0v_del2       =   0.0000000000000000E+00
(PID.TID 0000.0001) %MON trcstat_ptracer0w_max        =   4.5992789091542363E-04
(PID.TID 0000.0001) %MON trcstat_ptracer0w_min        =   1.2740383681375533E-07
(PID.TID 0000.0001) %MON trcstat_ptracer0w_mean       =   1.5982259460042055E-05
(PID.TID 0000.0001) %MON trcstat_ptracer0w_sd         =   7.9444712789813508E-05
(PID.TID 0000.0001) %MON trcstat_ptracer0w_del2       =   0.0000000000000000E+00
(PID.TID 0000.0001) %MON trcstat_ptracer0x_max        =   4.5992789091542363E-04
(PID.TID 0000.0001) %MON trcstat_ptracer0x_min        =   1.2740383681375533E-07
(PID.TID 0000.0001) %MON trcstat_ptracer0x_mean       =   1.5982259460042055E-05
(PID.TID 0000.0001) %MON trcstat_ptracer0x_sd         =   7.9444712789813508E-05
(PID.TID 0000.0001) %MON trcstat_ptracer0x_del2       =   0.0000000000000000E+00
(PID.TID 0000.0001) %MON trcstat_ptracer0y_max        =   4.5992789091542363E-04
(PID.TID 0000.0001) %MON trcstat_ptracer0y_min        =   1.2740383681375533E-07
(PID.TID 0000.0001) %MON trcstat_ptracer0y_mean       =   1.5982259460042055E-05
(PID.TID 0000.0001) %MON trcstat_ptracer0y_sd         =   7.9444712789813508E-05
(PID.TID 0000.0001) %MON trcstat_ptracer0y_del2       =   0.0000000000000000E+00
(PID.TID 0000.0001) %MON trcstat_ptracer0z_max        =   4.5992789091542363E-04
(PID.TID 0000.0001) %MON trcstat_ptracer0z_min        =   1.2740383681375533E-07
(PID.TID 0000.0001) %MON trcstat_ptracer0z_mean       =   1.5982259460042055E-05
(PID.TID 0000.0001) %MON trcstat_ptracer0z_sd         =   7.9444712789813508E-05
(PID.TID 0000.0001) %MON trcstat_ptracer0z_del2       =   0.0000000000000000E+00
(PID.TID 0000.0001) %MON trcstat_ptracer0A_max        =   4.5992789091542363E-04
(PID.TID 0000.0001) %MON trcstat_ptracer0A_min        =   1.2740383681375533E-07
(PID.TID 0000.0001) %MON trcstat_ptracer0A_mean       =   1.5982259460042055E-05
(PID.TID 0000.0001) %MON trcstat_ptracer0A_sd         =   7.9444712789813508E-05
(PID.TID 0000.0001) %MON trcstat_ptracer0A_del2       =   0.0000000000000000E+00
(PID.TID 0000.0001) %MON trcstat_ptracer0B_max        =   4.5992789091542363E-04
(PID.TID 0000.0001) %MON trcstat_ptracer0B_min        =   1.2740383681375533E-07
(PID.TID 0000.0001) %MON trcstat_ptracer0B_mean       =   1.5982259460042055E-05
(PID.TID 0000.0001) %MON trcstat_ptracer0B_sd         =   7.9444712789813508E-05
(PID.TID 0000.0001) %MON trcstat_ptracer0B_del2       =   0.0000000000000000E+00
(PID.TID 0000.0001) %MON trcstat_ptracer0C_max        =   4.5992789091542363E-04
(PID.TID 0000.0001) %MON trcstat_ptracer0C_min        =   1.2740383681375533E-07
(PID.TID 0000.0001) %MON trcstat_ptracer0C_mean       =   1.5982259460042055E-05
(PID.TID 0000.0001) %MON trcstat_ptracer0C_sd         =   7.9444712789813508E-05
(PID.TID 0000.0001) %MON trcstat_ptracer0C_del2       =   0.0000000000000000E+00
(PID.TID 0000.0001) %MON trcstat_ptracer0D_max        =   4.5992789091542363E-04
(PID.TID 0000.0001) %MON trcstat_ptracer0D_min        =   1.2740383681375533E-07
(PID.TID 0000.0001) %MON trcstat_ptracer0D_mean       =   1.5982259460042055E-05
(PID.TID 0000.0001) %MON trcstat_ptracer0D_sd         =   7.9444712789813508E-05
(PID.TID 0000.0001) %MON trcstat_ptracer0D_del2       =   0.0000000000000000E+00
(PID.TID 0000.0001) %MON trcstat_ptracer0E_max        =   4.5992789091542363E-04
(PID.TID 0000.0001) %MON trcstat_ptracer0E_min        =   1.2740383681375533E-07
(PID.TID 0000.0001) %MON trcstat_ptracer0E_mean       =   1.5982259460042055E-05
(PID.TID 0000.0001) %MON trcstat_ptracer0E_sd         =   7.9444712789813508E-05
(PID.TID 0000.0001) %MON trcstat_ptracer0E_del2       =   0.0000000000000000E+00
(PID.TID 0000.0001) %MON trcstat_ptracer0F_max        =   4.5992789091542363E-04
(PID.TID 0000.0001) %MON trcstat_ptracer0F_min        =   1.2740383681375533E-07
(PID.TID 0000.0001) %MON trcstat_ptracer0F_mean       =   1.5982259460042055E-05
(PID.TID 0000.0001) %MON trcstat_ptracer0F_sd         =   7.9444712789813508E-05
(PID.TID 0000.0001) %MON trcstat_ptracer0F_del2       =   0.0000000000000000E+00
(PID.TID 0000.0001) %MON trcstat_ptracer0G_max        =   4.5992789091542363E-04
(PID.TID 0000.0001) %MON trcstat_ptracer0G_min        =   1.2740383681375533E-07
(PID.TID 0000.0001) %MON trcstat_ptracer0G_mean       =   1.5982259460042055E-05
(PID.TID 0000.0001) %MON trcstat_ptracer0G_sd         =   7.9444712789813508E-05
(PID.TID 0000.0001) %MON trcstat_ptracer0G_del2       =   0.0000000000000000E+00
(PID.TID 0000.0001) %MON trcstat_ptracer0H_max        =   4.5992789091542363E-04
(PID.TID 0000.0001) %MON trcstat_ptracer0H_min        =   1.2740383681375533E-07
(PID.TID 0000.0001) %MON trcstat_ptracer0H_mean       =   1.5982259460042055E-05
(PID.TID 0000.0001) %MON trcstat_ptracer0H_sd         =   7.9444712789813508E-05
(PID.TID 0000.0001) %MON trcstat_ptracer0H_del2       =   0.0000000000000000E+00
(PID.TID 0000.0001) %MON trcstat_ptracer0I_max        =   4.5992789091542364E-07
(PID.TID 0000.0001) %MON trcstat_ptracer0I_min        =   1.2740383681375533E-10
(PID.TID 0000.0001) %MON trcstat_ptracer0I_mean       =   1.5982259460042047E-08
(PID.TID 0000.0001) %MON trcstat_ptracer0I_sd         =   7.9444712789813511E-08
(PID.TID 0000.0001) %MON trcstat_ptracer0I_del2       =   0.0000000000000000E+00
(PID.TID 0000.0001) %MON trcstat_ptracer0J_max        =   4.5992789091542364E-07
(PID.TID 0000.0001) %MON trcstat_ptracer0J_min        =   1.2740383681375533E-10
(PID.TID 0000.0001) %MON trcstat_ptracer0J_mean       =   1.5982259460042047E-08
(PID.TID 0000.0001) %MON trcstat_ptracer0J_sd         =   7.9444712789813511E-08
(PID.TID 0000.0001) %MON trcstat_ptracer0J_del2       =   0.0000000000000000E+00
(PID.TID 0000.0001) %MON trcstat_ptracer0K_max        =   4.5992789091542364E-07
(PID.TID 0000.0001) %MON trcstat_ptracer0K_min        =   1.2740383681375533E-10
(PID.TID 0000.0001) %MON trcstat_ptracer0K_mean       =   1.5982259460042047E-08
(PID.TID 0000.0001) %MON trcstat_ptracer0K_sd         =   7.9444712789813511E-08
(PID.TID 0000.0001) %MON trcstat_ptracer0K_del2       =   0.0000000000000000E+00
(PID.TID 0000.0001) %MON trcstat_ptracer0L_max        =   4.5992789091542364E-07
(PID.TID 0000.0001) %MON trcstat_ptracer0L_min        =   1.2740383681375533E-10
(PID.TID 0000.0001) %MON trcstat_ptracer0L_mean       =   1.5982259460042047E-08
(PID.TID 0000.0001) %MON trcstat_ptracer0L_sd         =   7.9444712789813511E-08
(PID.TID 0000.0001) %MON trcstat_ptracer0L_del2       =   0.0000000000000000E+00
(PID.TID 0000.0001) %MON trcstat_ptracer0M_max        =   1.8397115636616947E-07
(PID.TID 0000.0001) %MON trcstat_ptracer0M_min        =   5.0961534725502135E-11
(PID.TID 0000.0001) %MON trcstat_ptracer0M_mean       =   6.3929037840168180E-09
(PID.TID 0000.0001) %MON trcstat_ptracer0M_sd         =   3.1777885115925400E-08
(PID.TID 0000.0001) %MON trcstat_ptracer0M_del2       =   0.0000000000000000E+00
(PID.TID 0000.0001) %MON trcstat_ptracer0N_max        =   4.5992789091542364E-07
(PID.TID 0000.0001) %MON trcstat_ptracer0N_min        =   1.2740383681375533E-10
(PID.TID 0000.0001) %MON trcstat_ptracer0N_mean       =   1.5982259460042047E-08
(PID.TID 0000.0001) %MON trcstat_ptracer0N_sd         =   7.9444712789813511E-08
(PID.TID 0000.0001) %MON trcstat_ptracer0N_del2       =   0.0000000000000000E+00
(PID.TID 0000.0001) %MON trcstat_ptracer0O_max        =   4.5992789091542364E-07
(PID.TID 0000.0001) %MON trcstat_ptracer0O_min        =   1.2740383681375533E-10
(PID.TID 0000.0001) %MON trcstat_ptracer0O_mean       =   1.5982259460042047E-08
(PID.TID 0000.0001) %MON trcstat_ptracer0O_sd         =   7.9444712789813511E-08
(PID.TID 0000.0001) %MON trcstat_ptracer0O_del2       =   0.0000000000000000E+00
(PID.TID 0000.0001) %MON trcstat_ptracer0P_max        =   1.8397115636616947E-07
(PID.TID 0000.0001) %MON trcstat_ptracer0P_min        =   5.0961534725502135E-11
(PID.TID 0000.0001) %MON trcstat_ptracer0P_mean       =   6.3929037840168180E-09
(PID.TID 0000.0001) %MON trcstat_ptracer0P_sd         =   3.1777885115925400E-08
(PID.TID 0000.0001) %MON trcstat_ptracer0P_del2       =   0.0000000000000000E+00
(PID.TID 0000.0001) %MON trcstat_ptracer0Q_max        =   4.5992789091542364E-07
(PID.TID 0000.0001) %MON trcstat_ptracer0Q_min        =   1.2740383681375533E-10
(PID.TID 0000.0001) %MON trcstat_ptracer0Q_mean       =   1.5982259460042047E-08
(PID.TID 0000.0001) %MON trcstat_ptracer0Q_sd         =   7.9444712789813511E-08
(PID.TID 0000.0001) %MON trcstat_ptracer0Q_del2       =   0.0000000000000000E+00
(PID.TID 0000.0001) %MON trcstat_ptracer0R_max        =   4.5992789091542364E-07
(PID.TID 0000.0001) %MON trcstat_ptracer0R_min        =   1.2740383681375533E-10
(PID.TID 0000.0001) %MON trcstat_ptracer0R_mean       =   1.5982259460042047E-08
(PID.TID 0000.0001) %MON trcstat_ptracer0R_sd         =   7.9444712789813511E-08
(PID.TID 0000.0001) %MON trcstat_ptracer0R_del2       =   0.0000000000000000E+00
(PID.TID 0000.0001) %MON trcstat_ptracer0S_max        =   1.8397115636616947E-07
(PID.TID 0000.0001) %MON trcstat_ptracer0S_min        =   5.0961534725502135E-11
(PID.TID 0000.0001) %MON trcstat_ptracer0S_mean       =   6.3929037840168180E-09
(PID.TID 0000.0001) %MON trcstat_ptracer0S_sd         =   3.1777885115925400E-08
(PID.TID 0000.0001) %MON trcstat_ptracer0S_del2       =   0.0000000000000000E+00
(PID.TID 0000.0001) %MON trcstat_ptracer0T_max        =   4.5992789091542364E-07
(PID.TID 0000.0001) %MON trcstat_ptracer0T_min        =   1.2740383681375533E-10
(PID.TID 0000.0001) %MON trcstat_ptracer0T_mean       =   1.5982259460042047E-08
(PID.TID 0000.0001) %MON trcstat_ptracer0T_sd         =   7.9444712789813511E-08
(PID.TID 0000.0001) %MON trcstat_ptracer0T_del2       =   0.0000000000000000E+00
(PID.TID 0000.0001) %MON trcstat_ptracer0U_max        =   4.5992789091542364E-07
(PID.TID 0000.0001) %MON trcstat_ptracer0U_min        =   1.2740383681375533E-10
(PID.TID 0000.0001) %MON trcstat_ptracer0U_mean       =   1.5982259460042047E-08
(PID.TID 0000.0001) %MON trcstat_ptracer0U_sd         =   7.9444712789813511E-08
(PID.TID 0000.0001) %MON trcstat_ptracer0U_del2       =   0.0000000000000000E+00
(PID.TID 0000.0001) %MON trcstat_ptracer0V_max        =   1.8397115636616947E-07
(PID.TID 0000.0001) %MON trcstat_ptracer0V_min        =   5.0961534725502135E-11
(PID.TID 0000.0001) %MON trcstat_ptracer0V_mean       =   6.3929037840168180E-09
(PID.TID 0000.0001) %MON trcstat_ptracer0V_sd         =   3.1777885115925400E-08
(PID.TID 0000.0001) %MON trcstat_ptracer0V_del2       =   0.0000000000000000E+00
(PID.TID 0000.0001) %MON trcstat_ptracer0W_max        =   4.5992789091542364E-07
(PID.TID 0000.0001) %MON trcstat_ptracer0W_min        =   1.2740383681375533E-10
(PID.TID 0000.0001) %MON trcstat_ptracer0W_mean       =   1.5982259460042047E-08
(PID.TID 0000.0001) %MON trcstat_ptracer0W_sd         =   7.9444712789813511E-08
(PID.TID 0000.0001) %MON trcstat_ptracer0W_del2       =   0.0000000000000000E+00
(PID.TID 0000.0001) %MON trcstat_ptracer0X_max        =   4.5992789091542364E-07
(PID.TID 0000.0001) %MON trcstat_ptracer0X_min        =   1.2740383681375533E-10
(PID.TID 0000.0001) %MON trcstat_ptracer0X_mean       =   1.5982259460042047E-08
(PID.TID 0000.0001) %MON trcstat_ptracer0X_sd         =   7.9444712789813511E-08
(PID.TID 0000.0001) %MON trcstat_ptracer0X_del2       =   0.0000000000000000E+00
(PID.TID 0000.0001) %MON trcstat_ptracer0Y_max        =   1.8397115636616947E-07
(PID.TID 0000.0001) %MON trcstat_ptracer0Y_min        =   5.0961534725502135E-11
(PID.TID 0000.0001) %MON trcstat_ptracer0Y_mean       =   6.3929037840168180E-09
(PID.TID 0000.0001) %MON trcstat_ptracer0Y_sd         =   3.1777885115925400E-08
(PID.TID 0000.0001) %MON trcstat_ptracer0Y_del2       =   0.0000000000000000E+00
(PID.TID 0000.0001) %MON trcstat_ptracer0Z_max        =   4.5992789091542364E-07
(PID.TID 0000.0001) %MON trcstat_ptracer0Z_min        =   1.2740383681375533E-10
(PID.TID 0000.0001) %MON trcstat_ptracer0Z_mean       =   1.5982259460042047E-08
(PID.TID 0000.0001) %MON trcstat_ptracer0Z_sd         =   7.9444712789813511E-08
(PID.TID 0000.0001) %MON trcstat_ptracer0Z_del2       =   0.0000000000000000E+00
(PID.TID 0000.0001) %MON trcstat_ptracer1a_max        =   4.5992789091542364E-07
(PID.TID 0000.0001) %MON trcstat_ptracer1a_min        =   1.2740383681375533E-10
(PID.TID 0000.0001) %MON trcstat_ptracer1a_mean       =   1.5982259460042047E-08
(PID.TID 0000.0001) %MON trcstat_ptracer1a_sd         =   7.9444712789813511E-08
(PID.TID 0000.0001) %MON trcstat_ptracer1a_del2       =   0.0000000000000000E+00
(PID.TID 0000.0001) %MON trcstat_ptracer1b_max        =   4.5992789091542364E-07
(PID.TID 0000.0001) %MON trcstat_ptracer1b_min        =   1.2740383681375533E-10
(PID.TID 0000.0001) %MON trcstat_ptracer1b_mean       =   1.5982259460042047E-08
(PID.TID 0000.0001) %MON trcstat_ptracer1b_sd         =   7.9444712789813511E-08
(PID.TID 0000.0001) %MON trcstat_ptracer1b_del2       =   0.0000000000000000E+00
(PID.TID 0000.0001) %MON trcstat_ptracer1c_max        =   4.5992789091542364E-07
(PID.TID 0000.0001) %MON trcstat_ptracer1c_min        =   1.2740383681375533E-10
(PID.TID 0000.0001) %MON trcstat_ptracer1c_mean       =   1.5982259460042047E-08
(PID.TID 0000.0001) %MON trcstat_ptracer1c_sd         =   7.9444712789813511E-08
(PID.TID 0000.0001) %MON trcstat_ptracer1c_del2       =   0.0000000000000000E+00
(PID.TID 0000.0001) %MON trcstat_ptracer1d_max        =   4.5992789091542364E-07
(PID.TID 0000.0001) %MON trcstat_ptracer1d_min        =   1.2740383681375533E-10
(PID.TID 0000.0001) %MON trcstat_ptracer1d_mean       =   1.5982259460042047E-08
(PID.TID 0000.0001) %MON trcstat_ptracer1d_sd         =   7.9444712789813511E-08
(PID.TID 0000.0001) %MON trcstat_ptracer1d_del2       =   0.0000000000000000E+00
(PID.TID 0000.0001) %MON trcstat_ptracer1e_max        =   4.5992789091542364E-07
(PID.TID 0000.0001) %MON trcstat_ptracer1e_min        =   1.2740383681375533E-10
(PID.TID 0000.0001) %MON trcstat_ptracer1e_mean       =   1.5982259460042047E-08
(PID.TID 0000.0001) %MON trcstat_ptracer1e_sd         =   7.9444712789813511E-08
(PID.TID 0000.0001) %MON trcstat_ptracer1e_del2       =   0.0000000000000000E+00
(PID.TID 0000.0001) %MON trcstat_ptracer1f_max        =   4.5992789091542364E-07
(PID.TID 0000.0001) %MON trcstat_ptracer1f_min        =   1.2740383681375533E-10
(PID.TID 0000.0001) %MON trcstat_ptracer1f_mean       =   1.5982259460042047E-08
(PID.TID 0000.0001) %MON trcstat_ptracer1f_sd         =   7.9444712789813511E-08
(PID.TID 0000.0001) %MON trcstat_ptracer1f_del2       =   0.0000000000000000E+00
(PID.TID 0000.0001) %MON trcstat_ptracer1g_max        =   4.5992789091542364E-07
(PID.TID 0000.0001) %MON trcstat_ptracer1g_min        =   1.2740383681375533E-10
(PID.TID 0000.0001) %MON trcstat_ptracer1g_mean       =   1.5982259460042047E-08
(PID.TID 0000.0001) %MON trcstat_ptracer1g_sd         =   7.9444712789813511E-08
(PID.TID 0000.0001) %MON trcstat_ptracer1g_del2       =   0.0000000000000000E+00
(PID.TID 0000.0001) %MON trcstat_ptracer1h_max        =   4.5992789091542364E-07
(PID.TID 0000.0001) %MON trcstat_ptracer1h_min        =   1.2740383681375533E-10
(PID.TID 0000.0001) %MON trcstat_ptracer1h_mean       =   1.5982259460042047E-08
(PID.TID 0000.0001) %MON trcstat_ptracer1h_sd         =   7.9444712789813511E-08
(PID.TID 0000.0001) %MON trcstat_ptracer1h_del2       =   0.0000000000000000E+00
(PID.TID 0000.0001) %MON trcstat_ptracer1i_max        =   4.5992789091542364E-07
(PID.TID 0000.0001) %MON trcstat_ptracer1i_min        =   1.2740383681375533E-10
(PID.TID 0000.0001) %MON trcstat_ptracer1i_mean       =   1.5982259460042047E-08
(PID.TID 0000.0001) %MON trcstat_ptracer1i_sd         =   7.9444712789813511E-08
(PID.TID 0000.0001) %MON trcstat_ptracer1i_del2       =   0.0000000000000000E+00
(PID.TID 0000.0001) %MON trcstat_ptracer1j_max        =   4.5992789091542364E-07
(PID.TID 0000.0001) %MON trcstat_ptracer1j_min        =   1.2740383681375533E-10
(PID.TID 0000.0001) %MON trcstat_ptracer1j_mean       =   1.5982259460042047E-08
(PID.TID 0000.0001) %MON trcstat_ptracer1j_sd         =   7.9444712789813511E-08
(PID.TID 0000.0001) %MON trcstat_ptracer1j_del2       =   0.0000000000000000E+00
(PID.TID 0000.0001) %MON trcstat_ptracer1k_max        =   4.5992789091542364E-07
(PID.TID 0000.0001) %MON trcstat_ptracer1k_min        =   1.2740383681375533E-10
(PID.TID 0000.0001) %MON trcstat_ptracer1k_mean       =   1.5982259460042047E-08
(PID.TID 0000.0001) %MON trcstat_ptracer1k_sd         =   7.9444712789813511E-08
(PID.TID 0000.0001) %MON trcstat_ptracer1k_del2       =   0.0000000000000000E+00
(PID.TID 0000.0001) %MON trcstat_ptracer1l_max        =   4.5992789091542364E-07
(PID.TID 0000.0001) %MON trcstat_ptracer1l_min        =   1.2740383681375533E-10
(PID.TID 0000.0001) %MON trcstat_ptracer1l_mean       =   1.5982259460042047E-08
(PID.TID 0000.0001) %MON trcstat_ptracer1l_sd         =   7.9444712789813511E-08
(PID.TID 0000.0001) %MON trcstat_ptracer1l_del2       =   0.0000000000000000E+00
(PID.TID 0000.0001) %MON trcstat_ptracer1m_max        =   4.5992789091542364E-07
(PID.TID 0000.0001) %MON trcstat_ptracer1m_min        =   1.2740383681375533E-10
(PID.TID 0000.0001) %MON trcstat_ptracer1m_mean       =   1.5982259460042047E-08
(PID.TID 0000.0001) %MON trcstat_ptracer1m_sd         =   7.9444712789813511E-08
(PID.TID 0000.0001) %MON trcstat_ptracer1m_del2       =   0.0000000000000000E+00
(PID.TID 0000.0001) %MON trcstat_ptracer1n_max        =   4.5992789091542364E-07
(PID.TID 0000.0001) %MON trcstat_ptracer1n_min        =   1.2740383681375533E-10
(PID.TID 0000.0001) %MON trcstat_ptracer1n_mean       =   1.5982259460042047E-08
(PID.TID 0000.0001) %MON trcstat_ptracer1n_sd         =   7.9444712789813511E-08
(PID.TID 0000.0001) %MON trcstat_ptracer1n_del2       =   0.0000000000000000E+00
(PID.TID 0000.0001) %MON trcstat_ptracer1o_max        =   4.5992789091542364E-07
(PID.TID 0000.0001) %MON trcstat_ptracer1o_min        =   1.2740383681375533E-10
(PID.TID 0000.0001) %MON trcstat_ptracer1o_mean       =   1.5982259460042047E-08
(PID.TID 0000.0001) %MON trcstat_ptracer1o_sd         =   7.9444712789813511E-08
(PID.TID 0000.0001) %MON trcstat_ptracer1o_del2       =   0.0000000000000000E+00
(PID.TID 0000.0001) %MON trcstat_ptracer1p_max        =   4.5992789091542364E-07
(PID.TID 0000.0001) %MON trcstat_ptracer1p_min        =   1.2740383681375533E-10
(PID.TID 0000.0001) %MON trcstat_ptracer1p_mean       =   1.5982259460042047E-08
(PID.TID 0000.0001) %MON trcstat_ptracer1p_sd         =   7.9444712789813511E-08
(PID.TID 0000.0001) %MON trcstat_ptracer1p_del2       =   0.0000000000000000E+00
(PID.TID 0000.0001) %MON trcstat_ptracer1q_max        =   4.5992789091542364E-07
(PID.TID 0000.0001) %MON trcstat_ptracer1q_min        =   1.2740383681375533E-10
(PID.TID 0000.0001) %MON trcstat_ptracer1q_mean       =   1.5982259460042047E-08
(PID.TID 0000.0001) %MON trcstat_ptracer1q_sd         =   7.9444712789813511E-08
(PID.TID 0000.0001) %MON trcstat_ptracer1q_del2       =   0.0000000000000000E+00
(PID.TID 0000.0001) %MON trcstat_ptracer1r_max        =   4.5992789091542364E-07
(PID.TID 0000.0001) %MON trcstat_ptracer1r_min        =   1.2740383681375533E-10
(PID.TID 0000.0001) %MON trcstat_ptracer1r_mean       =   1.5982259460042047E-08
(PID.TID 0000.0001) %MON trcstat_ptracer1r_sd         =   7.9444712789813511E-08
(PID.TID 0000.0001) %MON trcstat_ptracer1r_del2       =   0.0000000000000000E+00
(PID.TID 0000.0001) %MON trcstat_ptracer1s_max        =   4.5992789091542364E-07
(PID.TID 0000.0001) %MON trcstat_ptracer1s_min        =   1.2740383681375533E-10
(PID.TID 0000.0001) %MON trcstat_ptracer1s_mean       =   1.5982259460042047E-08
(PID.TID 0000.0001) %MON trcstat_ptracer1s_sd         =   7.9444712789813511E-08
(PID.TID 0000.0001) %MON trcstat_ptracer1s_del2       =   0.0000000000000000E+00
(PID.TID 0000.0001) %MON trcstat_ptracer1t_max        =   4.5992789091542364E-07
(PID.TID 0000.0001) %MON trcstat_ptracer1t_min        =   1.2740383681375533E-10
(PID.TID 0000.0001) %MON trcstat_ptracer1t_mean       =   1.5982259460042047E-08
(PID.TID 0000.0001) %MON trcstat_ptracer1t_sd         =   7.9444712789813511E-08
(PID.TID 0000.0001) %MON trcstat_ptracer1t_del2       =   0.0000000000000000E+00
(PID.TID 0000.0001) %MON trcstat_ptracer1u_max        =   0.0000000000000000E+00
(PID.TID 0000.0001) %MON trcstat_ptracer1u_min        =   0.0000000000000000E+00
(PID.TID 0000.0001) %MON trcstat_ptracer1u_mean       =   0.0000000000000000E+00
(PID.TID 0000.0001) %MON trcstat_ptracer1u_sd         =   0.0000000000000000E+00
(PID.TID 0000.0001) %MON trcstat_ptracer1u_del2       =   0.0000000000000000E+00
(PID.TID 0000.0001) %MON trcstat_ptracer1v_max        =   0.0000000000000000E+00
(PID.TID 0000.0001) %MON trcstat_ptracer1v_min        =   0.0000000000000000E+00
(PID.TID 0000.0001) %MON trcstat_ptracer1v_mean       =   0.0000000000000000E+00
(PID.TID 0000.0001) %MON trcstat_ptracer1v_sd         =   0.0000000000000000E+00
(PID.TID 0000.0001) %MON trcstat_ptracer1v_del2       =   0.0000000000000000E+00
(PID.TID 0000.0001) %MON trcstat_ptracer1w_max        =   0.0000000000000000E+00
(PID.TID 0000.0001) %MON trcstat_ptracer1w_min        =   0.0000000000000000E+00
(PID.TID 0000.0001) %MON trcstat_ptracer1w_mean       =   0.0000000000000000E+00
(PID.TID 0000.0001) %MON trcstat_ptracer1w_sd         =   0.0000000000000000E+00
(PID.TID 0000.0001) %MON trcstat_ptracer1w_del2       =   0.0000000000000000E+00
(PID.TID 0000.0001) %MON trcstat_ptracer1x_max        =   0.0000000000000000E+00
(PID.TID 0000.0001) %MON trcstat_ptracer1x_min        =   0.0000000000000000E+00
(PID.TID 0000.0001) %MON trcstat_ptracer1x_mean       =   0.0000000000000000E+00
(PID.TID 0000.0001) %MON trcstat_ptracer1x_sd         =   0.0000000000000000E+00
(PID.TID 0000.0001) %MON trcstat_ptracer1x_del2       =   0.0000000000000000E+00
(PID.TID 0000.0001) %MON trcstat_ptracer1y_max        =   0.0000000000000000E+00
(PID.TID 0000.0001) %MON trcstat_ptracer1y_min        =   0.0000000000000000E+00
(PID.TID 0000.0001) %MON trcstat_ptracer1y_mean       =   0.0000000000000000E+00
(PID.TID 0000.0001) %MON trcstat_ptracer1y_sd         =   0.0000000000000000E+00
(PID.TID 0000.0001) %MON trcstat_ptracer1y_del2       =   0.0000000000000000E+00
(PID.TID 0000.0001) %MON trcstat_ptracer1z_max        =   0.0000000000000000E+00
(PID.TID 0000.0001) %MON trcstat_ptracer1z_min        =   0.0000000000000000E+00
(PID.TID 0000.0001) %MON trcstat_ptracer1z_mean       =   0.0000000000000000E+00
(PID.TID 0000.0001) %MON trcstat_ptracer1z_sd         =   0.0000000000000000E+00
(PID.TID 0000.0001) %MON trcstat_ptracer1z_del2       =   0.0000000000000000E+00
(PID.TID 0000.0001) %MON trcstat_ptracer1A_max        =   7.3588462546467781E-03
(PID.TID 0000.0001) %MON trcstat_ptracer1A_min        =   2.0384613890200853E-06
(PID.TID 0000.0001) %MON trcstat_ptracer1A_mean       =   2.5571615136067287E-04
(PID.TID 0000.0001) %MON trcstat_ptracer1A_sd         =   1.2711154046370161E-03
(PID.TID 0000.0001) %MON trcstat_ptracer1A_del2       =   0.0000000000000000E+00
(PID.TID 0000.0001) %MON trcstat_ptracer1B_max        =   0.0000000000000000E+00
(PID.TID 0000.0001) %MON trcstat_ptracer1B_min        =   0.0000000000000000E+00
(PID.TID 0000.0001) %MON trcstat_ptracer1B_mean       =   0.0000000000000000E+00
(PID.TID 0000.0001) %MON trcstat_ptracer1B_sd         =   0.0000000000000000E+00
(PID.TID 0000.0001) %MON trcstat_ptracer1B_del2       =   0.0000000000000000E+00
(PID.TID 0000.0001) %MON trcstat_ptracer1C_max        =   0.0000000000000000E+00
(PID.TID 0000.0001) %MON trcstat_ptracer1C_min        =   0.0000000000000000E+00
(PID.TID 0000.0001) %MON trcstat_ptracer1C_mean       =   0.0000000000000000E+00
(PID.TID 0000.0001) %MON trcstat_ptracer1C_sd         =   0.0000000000000000E+00
(PID.TID 0000.0001) %MON trcstat_ptracer1C_del2       =   0.0000000000000000E+00
(PID.TID 0000.0001) %MON trcstat_ptracer1D_max        =   7.3588462546467781E-03
(PID.TID 0000.0001) %MON trcstat_ptracer1D_min        =   2.0384613890200853E-06
(PID.TID 0000.0001) %MON trcstat_ptracer1D_mean       =   2.5571615136067287E-04
(PID.TID 0000.0001) %MON trcstat_ptracer1D_sd         =   1.2711154046370161E-03
(PID.TID 0000.0001) %MON trcstat_ptracer1D_del2       =   0.0000000000000000E+00
(PID.TID 0000.0001) %MON trcstat_ptracer1E_max        =   0.0000000000000000E+00
(PID.TID 0000.0001) %MON trcstat_ptracer1E_min        =   0.0000000000000000E+00
(PID.TID 0000.0001) %MON trcstat_ptracer1E_mean       =   0.0000000000000000E+00
(PID.TID 0000.0001) %MON trcstat_ptracer1E_sd         =   0.0000000000000000E+00
(PID.TID 0000.0001) %MON trcstat_ptracer1E_del2       =   0.0000000000000000E+00
(PID.TID 0000.0001) %MON trcstat_ptracer1F_max        =   0.0000000000000000E+00
(PID.TID 0000.0001) %MON trcstat_ptracer1F_min        =   0.0000000000000000E+00
(PID.TID 0000.0001) %MON trcstat_ptracer1F_mean       =   0.0000000000000000E+00
(PID.TID 0000.0001) %MON trcstat_ptracer1F_sd         =   0.0000000000000000E+00
(PID.TID 0000.0001) %MON trcstat_ptracer1F_del2       =   0.0000000000000000E+00
(PID.TID 0000.0001) %MON trcstat_ptracer1G_max        =   7.3588462546467781E-03
(PID.TID 0000.0001) %MON trcstat_ptracer1G_min        =   2.0384613890200853E-06
(PID.TID 0000.0001) %MON trcstat_ptracer1G_mean       =   2.5571615136067287E-04
(PID.TID 0000.0001) %MON trcstat_ptracer1G_sd         =   1.2711154046370161E-03
(PID.TID 0000.0001) %MON trcstat_ptracer1G_del2       =   0.0000000000000000E+00
(PID.TID 0000.0001) %MON trcstat_ptracer1H_max        =   0.0000000000000000E+00
(PID.TID 0000.0001) %MON trcstat_ptracer1H_min        =   0.0000000000000000E+00
(PID.TID 0000.0001) %MON trcstat_ptracer1H_mean       =   0.0000000000000000E+00
(PID.TID 0000.0001) %MON trcstat_ptracer1H_sd         =   0.0000000000000000E+00
(PID.TID 0000.0001) %MON trcstat_ptracer1H_del2       =   0.0000000000000000E+00
(PID.TID 0000.0001) %MON trcstat_ptracer1I_max        =   0.0000000000000000E+00
(PID.TID 0000.0001) %MON trcstat_ptracer1I_min        =   0.0000000000000000E+00
(PID.TID 0000.0001) %MON trcstat_ptracer1I_mean       =   0.0000000000000000E+00
(PID.TID 0000.0001) %MON trcstat_ptracer1I_sd         =   0.0000000000000000E+00
(PID.TID 0000.0001) %MON trcstat_ptracer1I_del2       =   0.0000000000000000E+00
(PID.TID 0000.0001) %MON trcstat_ptracer1J_max        =   7.3588462546467781E-03
(PID.TID 0000.0001) %MON trcstat_ptracer1J_min        =   2.0384613890200853E-06
(PID.TID 0000.0001) %MON trcstat_ptracer1J_mean       =   2.5571615136067287E-04
(PID.TID 0000.0001) %MON trcstat_ptracer1J_sd         =   1.2711154046370161E-03
(PID.TID 0000.0001) %MON trcstat_ptracer1J_del2       =   0.0000000000000000E+00
(PID.TID 0000.0001) %MON trcstat_ptracer1K_max        =   0.0000000000000000E+00
(PID.TID 0000.0001) %MON trcstat_ptracer1K_min        =   0.0000000000000000E+00
(PID.TID 0000.0001) %MON trcstat_ptracer1K_mean       =   0.0000000000000000E+00
(PID.TID 0000.0001) %MON trcstat_ptracer1K_sd         =   0.0000000000000000E+00
(PID.TID 0000.0001) %MON trcstat_ptracer1K_del2       =   0.0000000000000000E+00
(PID.TID 0000.0001) %MON trcstat_ptracer1L_max        =   0.0000000000000000E+00
(PID.TID 0000.0001) %MON trcstat_ptracer1L_min        =   0.0000000000000000E+00
(PID.TID 0000.0001) %MON trcstat_ptracer1L_mean       =   0.0000000000000000E+00
(PID.TID 0000.0001) %MON trcstat_ptracer1L_sd         =   0.0000000000000000E+00
(PID.TID 0000.0001) %MON trcstat_ptracer1L_del2       =   0.0000000000000000E+00
(PID.TID 0000.0001) %MON trcstat_ptracer1M_max        =   7.3588462546467781E-03
(PID.TID 0000.0001) %MON trcstat_ptracer1M_min        =   2.0384613890200853E-06
(PID.TID 0000.0001) %MON trcstat_ptracer1M_mean       =   2.5571615136067287E-04
(PID.TID 0000.0001) %MON trcstat_ptracer1M_sd         =   1.2711154046370161E-03
(PID.TID 0000.0001) %MON trcstat_ptracer1M_del2       =   0.0000000000000000E+00
(PID.TID 0000.0001) %MON trcstat_ptracer1N_max        =   0.0000000000000000E+00
(PID.TID 0000.0001) %MON trcstat_ptracer1N_min        =   0.0000000000000000E+00
(PID.TID 0000.0001) %MON trcstat_ptracer1N_mean       =   0.0000000000000000E+00
(PID.TID 0000.0001) %MON trcstat_ptracer1N_sd         =   0.0000000000000000E+00
(PID.TID 0000.0001) %MON trcstat_ptracer1N_del2       =   0.0000000000000000E+00
(PID.TID 0000.0001) %MON trcstat_ptracer1O_max        =   7.3588462546467781E-03
(PID.TID 0000.0001) %MON trcstat_ptracer1O_min        =   2.0384613890200853E-06
(PID.TID 0000.0001) %MON trcstat_ptracer1O_mean       =   2.5571615136067287E-04
(PID.TID 0000.0001) %MON trcstat_ptracer1O_sd         =   1.2711154046370161E-03
(PID.TID 0000.0001) %MON trcstat_ptracer1O_del2       =   0.0000000000000000E+00
(PID.TID 0000.0001) %MON trcstat_ptracer1P_max        =   7.3588462546467781E-03
(PID.TID 0000.0001) %MON trcstat_ptracer1P_min        =   2.0384613890200853E-06
(PID.TID 0000.0001) %MON trcstat_ptracer1P_mean       =   2.5571615136067287E-04
(PID.TID 0000.0001) %MON trcstat_ptracer1P_sd         =   1.2711154046370161E-03
(PID.TID 0000.0001) %MON trcstat_ptracer1P_del2       =   0.0000000000000000E+00
(PID.TID 0000.0001) %MON trcstat_ptracer1Q_max        =   7.3588462546467781E-03
(PID.TID 0000.0001) %MON trcstat_ptracer1Q_min        =   2.0384613890200853E-06
(PID.TID 0000.0001) %MON trcstat_ptracer1Q_mean       =   2.5571615136067287E-04
(PID.TID 0000.0001) %MON trcstat_ptracer1Q_sd         =   1.2711154046370161E-03
(PID.TID 0000.0001) %MON trcstat_ptracer1Q_del2       =   0.0000000000000000E+00
(PID.TID 0000.0001) %MON trcstat_ptracer1R_max        =   7.3588462546467781E-03
(PID.TID 0000.0001) %MON trcstat_ptracer1R_min        =   2.0384613890200853E-06
(PID.TID 0000.0001) %MON trcstat_ptracer1R_mean       =   2.5571615136067287E-04
(PID.TID 0000.0001) %MON trcstat_ptracer1R_sd         =   1.2711154046370161E-03
(PID.TID 0000.0001) %MON trcstat_ptracer1R_del2       =   0.0000000000000000E+00
(PID.TID 0000.0001) %MON trcstat_ptracer1S_max        =   0.0000000000000000E+00
(PID.TID 0000.0001) %MON trcstat_ptracer1S_min        =   0.0000000000000000E+00
(PID.TID 0000.0001) %MON trcstat_ptracer1S_mean       =   0.0000000000000000E+00
(PID.TID 0000.0001) %MON trcstat_ptracer1S_sd         =   0.0000000000000000E+00
(PID.TID 0000.0001) %MON trcstat_ptracer1S_del2       =   0.0000000000000000E+00
(PID.TID 0000.0001) %MON trcstat_ptracer1T_max        =   0.0000000000000000E+00
(PID.TID 0000.0001) %MON trcstat_ptracer1T_min        =   0.0000000000000000E+00
(PID.TID 0000.0001) %MON trcstat_ptracer1T_mean       =   0.0000000000000000E+00
(PID.TID 0000.0001) %MON trcstat_ptracer1T_sd         =   0.0000000000000000E+00
(PID.TID 0000.0001) %MON trcstat_ptracer1T_del2       =   0.0000000000000000E+00
(PID.TID 0000.0001) %MON trcstat_ptracer1U_max        =   0.0000000000000000E+00
(PID.TID 0000.0001) %MON trcstat_ptracer1U_min        =   0.0000000000000000E+00
(PID.TID 0000.0001) %MON trcstat_ptracer1U_mean       =   0.0000000000000000E+00
(PID.TID 0000.0001) %MON trcstat_ptracer1U_sd         =   0.0000000000000000E+00
(PID.TID 0000.0001) %MON trcstat_ptracer1U_del2       =   0.0000000000000000E+00
(PID.TID 0000.0001) %MON trcstat_ptracer1V_max        =   0.0000000000000000E+00
(PID.TID 0000.0001) %MON trcstat_ptracer1V_min        =   0.0000000000000000E+00
(PID.TID 0000.0001) %MON trcstat_ptracer1V_mean       =   0.0000000000000000E+00
(PID.TID 0000.0001) %MON trcstat_ptracer1V_sd         =   0.0000000000000000E+00
(PID.TID 0000.0001) %MON trcstat_ptracer1V_del2       =   0.0000000000000000E+00
(PID.TID 0000.0001) %MON trcstat_ptracer1W_max        =   0.0000000000000000E+00
(PID.TID 0000.0001) %MON trcstat_ptracer1W_min        =   0.0000000000000000E+00
(PID.TID 0000.0001) %MON trcstat_ptracer1W_mean       =   0.0000000000000000E+00
(PID.TID 0000.0001) %MON trcstat_ptracer1W_sd         =   0.0000000000000000E+00
(PID.TID 0000.0001) %MON trcstat_ptracer1W_del2       =   0.0000000000000000E+00
(PID.TID 0000.0001) %MON trcstat_ptracer1X_max        =   0.0000000000000000E+00
(PID.TID 0000.0001) %MON trcstat_ptracer1X_min        =   0.0000000000000000E+00
(PID.TID 0000.0001) %MON trcstat_ptracer1X_mean       =   0.0000000000000000E+00
(PID.TID 0000.0001) %MON trcstat_ptracer1X_sd         =   0.0000000000000000E+00
(PID.TID 0000.0001) %MON trcstat_ptracer1X_del2       =   0.0000000000000000E+00
(PID.TID 0000.0001) %MON trcstat_ptracer1Y_max        =   0.0000000000000000E+00
(PID.TID 0000.0001) %MON trcstat_ptracer1Y_min        =   0.0000000000000000E+00
(PID.TID 0000.0001) %MON trcstat_ptracer1Y_mean       =   0.0000000000000000E+00
(PID.TID 0000.0001) %MON trcstat_ptracer1Y_sd         =   0.0000000000000000E+00
(PID.TID 0000.0001) %MON trcstat_ptracer1Y_del2       =   0.0000000000000000E+00
(PID.TID 0000.0001) %MON trcstat_ptracer1Z_max        =   0.0000000000000000E+00
(PID.TID 0000.0001) %MON trcstat_ptracer1Z_min        =   0.0000000000000000E+00
(PID.TID 0000.0001) %MON trcstat_ptracer1Z_mean       =   0.0000000000000000E+00
(PID.TID 0000.0001) %MON trcstat_ptracer1Z_sd         =   0.0000000000000000E+00
(PID.TID 0000.0001) %MON trcstat_ptracer1Z_del2       =   0.0000000000000000E+00
(PID.TID 0000.0001) %MON trcstat_ptracer2a_max        =   0.0000000000000000E+00
(PID.TID 0000.0001) %MON trcstat_ptracer2a_min        =   0.0000000000000000E+00
(PID.TID 0000.0001) %MON trcstat_ptracer2a_mean       =   0.0000000000000000E+00
(PID.TID 0000.0001) %MON trcstat_ptracer2a_sd         =   0.0000000000000000E+00
(PID.TID 0000.0001) %MON trcstat_ptracer2a_del2       =   0.0000000000000000E+00
(PID.TID 0000.0001) %MON trcstat_ptracer2b_max        =   0.0000000000000000E+00
(PID.TID 0000.0001) %MON trcstat_ptracer2b_min        =   0.0000000000000000E+00
(PID.TID 0000.0001) %MON trcstat_ptracer2b_mean       =   0.0000000000000000E+00
(PID.TID 0000.0001) %MON trcstat_ptracer2b_sd         =   0.0000000000000000E+00
(PID.TID 0000.0001) %MON trcstat_ptracer2b_del2       =   0.0000000000000000E+00
(PID.TID 0000.0001) %MON trcstat_ptracer2c_max        =   0.0000000000000000E+00
(PID.TID 0000.0001) %MON trcstat_ptracer2c_min        =   0.0000000000000000E+00
(PID.TID 0000.0001) %MON trcstat_ptracer2c_mean       =   0.0000000000000000E+00
(PID.TID 0000.0001) %MON trcstat_ptracer2c_sd         =   0.0000000000000000E+00
(PID.TID 0000.0001) %MON trcstat_ptracer2c_del2       =   0.0000000000000000E+00
(PID.TID 0000.0001) %MON trcstat_ptracer2d_max        =   0.0000000000000000E+00
(PID.TID 0000.0001) %MON trcstat_ptracer2d_min        =   0.0000000000000000E+00
(PID.TID 0000.0001) %MON trcstat_ptracer2d_mean       =   0.0000000000000000E+00
(PID.TID 0000.0001) %MON trcstat_ptracer2d_sd         =   0.0000000000000000E+00
(PID.TID 0000.0001) %MON trcstat_ptracer2d_del2       =   0.0000000000000000E+00
(PID.TID 0000.0001) %MON trcstat_ptracer2e_max        =   0.0000000000000000E+00
(PID.TID 0000.0001) %MON trcstat_ptracer2e_min        =   0.0000000000000000E+00
(PID.TID 0000.0001) %MON trcstat_ptracer2e_mean       =   0.0000000000000000E+00
(PID.TID 0000.0001) %MON trcstat_ptracer2e_sd         =   0.0000000000000000E+00
(PID.TID 0000.0001) %MON trcstat_ptracer2e_del2       =   0.0000000000000000E+00
(PID.TID 0000.0001) %MON trcstat_ptracer2f_max        =   0.0000000000000000E+00
(PID.TID 0000.0001) %MON trcstat_ptracer2f_min        =   0.0000000000000000E+00
(PID.TID 0000.0001) %MON trcstat_ptracer2f_mean       =   0.0000000000000000E+00
(PID.TID 0000.0001) %MON trcstat_ptracer2f_sd         =   0.0000000000000000E+00
(PID.TID 0000.0001) %MON trcstat_ptracer2f_del2       =   0.0000000000000000E+00
(PID.TID 0000.0001) %MON trcstat_ptracer2g_max        =   1.2627597613713378E-02
(PID.TID 0000.0001) %MON trcstat_ptracer2g_min        =   4.5231254368715591E-06
(PID.TID 0000.0001) %MON trcstat_ptracer2g_mean       =   3.1023526651530685E-04
(PID.TID 0000.0001) %MON trcstat_ptracer2g_sd         =   1.6017573969646984E-03
(PID.TID 0000.0001) %MON trcstat_ptracer2g_del2       =   0.0000000000000000E+00
(PID.TID 0000.0001) %MON trcstat_ptracer2h_max        =   1.2870011591537845E-02
(PID.TID 0000.0001) %MON trcstat_ptracer2h_min        =   4.5280937203814147E-06
(PID.TID 0000.0001) %MON trcstat_ptracer2h_mean       =   3.1820688174257817E-04
(PID.TID 0000.0001) %MON trcstat_ptracer2h_sd         =   1.6387680987094528E-03
(PID.TID 0000.0001) %MON trcstat_ptracer2h_del2       =   0.0000000000000000E+00
(PID.TID 0000.0001) %MON trcstat_ptracer2i_max        =   1.3101564414534838E-02
(PID.TID 0000.0001) %MON trcstat_ptracer2i_min        =   4.5326773819816246E-06
(PID.TID 0000.0001) %MON trcstat_ptracer2i_mean       =   3.2616210114199979E-04
(PID.TID 0000.0001) %MON trcstat_ptracer2i_sd         =   1.6755299525006233E-03
(PID.TID 0000.0001) %MON trcstat_ptracer2i_del2       =   0.0000000000000000E+00
(PID.TID 0000.0001) %MON trcstat_ptracer2j_max        =   1.3322231788915678E-02
(PID.TID 0000.0001) %MON trcstat_ptracer2j_min        =   4.5369054977823388E-06
(PID.TID 0000.0001) %MON trcstat_ptracer2j_mean       =   3.3409219263405267E-04
(PID.TID 0000.0001) %MON trcstat_ptracer2j_sd         =   1.7120167846757545E-03
(PID.TID 0000.0001) %MON trcstat_ptracer2j_del2       =   0.0000000000000000E+00
(PID.TID 0000.0001) %MON trcstat_ptracer2k_max        =   1.3131072627054470E-03
(PID.TID 0000.0001) %MON trcstat_ptracer2k_min        =   4.5332505453415163E-07
(PID.TID 0000.0001) %MON trcstat_ptracer2k_mean       =   3.2720190896455095E-05
(PID.TID 0000.0001) %MON trcstat_ptracer2k_sd         =   1.6803229224528980E-04
(PID.TID 0000.0001) %MON trcstat_ptracer2k_del2       =   0.0000000000000000E+00
(PID.TID 0000.0001) %MON trcstat_ptracer2l_max        =   1.5355385579085553E-02
(PID.TID 0000.0001) %MON trcstat_ptracer2l_min        =   4.5704207724224719E-06
(PID.TID 0000.0001) %MON trcstat_ptracer2l_mean       =   4.3549585492857774E-04
(PID.TID 0000.0001) %MON trcstat_ptracer2l_sd         =   2.1718991086916587E-03
(PID.TID 0000.0001) %MON trcstat_ptracer2l_del2       =   0.0000000000000000E+00
(PID.TID 0000.0001) %MON trcstat_ptracer2m_max        =   1.5960761786160290E-02
(PID.TID 0000.0001) %MON trcstat_ptracer2m_min        =   4.5788272836755317E-06
(PID.TID 0000.0001) %MON trcstat_ptracer2m_mean       =   4.8800308249051836E-04
(PID.TID 0000.0001) %MON trcstat_ptracer2m_sd         =   2.4151081142883011E-03
(PID.TID 0000.0001) %MON trcstat_ptracer2m_del2       =   0.0000000000000000E+00
(PID.TID 0000.0001) %MON trcstat_ptracer2n_max        =   1.2624638082747914E-03
(PID.TID 0000.0001) %MON trcstat_ptracer2n_min        =   4.5230636709541774E-07
(PID.TID 0000.0001) %MON trcstat_ptracer2n_mean       =   3.1014002698389843E-05
(PID.TID 0000.0001) %MON trcstat_ptracer2n_sd         =   1.6013141209885126E-04
(PID.TID 0000.0001) %MON trcstat_ptracer2n_del2       =   0.0000000000000000E+00
(PID.TID 0000.0001) %MON trcstat_ptracer2o_max        =   1.5142288412043564E-02
(PID.TID 0000.0001) %MON trcstat_ptracer2o_min        =   4.5673095116728590E-06
(PID.TID 0000.0001) %MON trcstat_ptracer2o_mean       =   4.2095883470836669E-04
(PID.TID 0000.0001) %MON trcstat_ptracer2o_sd         =   2.1059215703224483E-03
(PID.TID 0000.0001) %MON trcstat_ptracer2o_del2       =   0.0000000000000000E+00
(PID.TID 0000.0001) %MON trcstat_ptracer2p_max        =   1.5850043462755221E-02
(PID.TID 0000.0001) %MON trcstat_ptracer2p_min        =   4.5773355311432015E-06
(PID.TID 0000.0001) %MON trcstat_ptracer2p_mean       =   4.7672868425048179E-04
(PID.TID 0000.0001) %MON trcstat_ptracer2p_sd         =   2.3619600861970662E-03
(PID.TID 0000.0001) %MON trcstat_ptracer2p_del2       =   0.0000000000000000E+00
(PID.TID 0000.0001) %MON trcstat_ptracer2q_max        =   1.2068935904604589E-03
(PID.TID 0000.0001) %MON trcstat_ptracer2q_min        =   4.5109618594644872E-07
(PID.TID 0000.0001) %MON trcstat_ptracer2q_mean       =   2.9304300863432576E-05
(PID.TID 0000.0001) %MON trcstat_ptracer2q_sd         =   1.5212921402347172E-04
(PID.TID 0000.0001) %MON trcstat_ptracer2q_del2       =   0.0000000000000000E+00
(PID.TID 0000.0001) %MON trcstat_ptracer2r_max        =   1.4895501524776126E-02
(PID.TID 0000.0001) %MON trcstat_ptracer2r_min        =   4.5636006737002210E-06
(PID.TID 0000.0001) %MON trcstat_ptracer2r_mean       =   4.0580522890127469E-04
(PID.TID 0000.0001) %MON trcstat_ptracer2r_sd         =   2.0374121434257324E-03
(PID.TID 0000.0001) %MON trcstat_ptracer2r_del2       =   0.0000000000000000E+00
(PID.TID 0000.0001) %MON trcstat_ptracer2s_max        =   1.5719857401714901E-02
(PID.TID 0000.0001) %MON trcstat_ptracer2s_min        =   4.5755558738248976E-06
(PID.TID 0000.0001) %MON trcstat_ptracer2s_mean       =   4.6459480472389942E-04
(PID.TID 0000.0001) %MON trcstat_ptracer2s_sd         =   2.3054205309066241E-03
(PID.TID 0000.0001) %MON trcstat_ptracer2s_del2       =   0.0000000000000000E+00
(PID.TID 0000.0001) %MON trcstat_ptracer2t_max        =   1.1466377171178543E-03
(PID.TID 0000.0001) %MON trcstat_ptracer2t_min        =   4.4965986396469556E-07
(PID.TID 0000.0001) %MON trcstat_ptracer2t_mean       =   2.7599486867793881E-05
(PID.TID 0000.0001) %MON trcstat_ptracer2t_sd         =   1.4405492148101439E-04
(PID.TID 0000.0001) %MON trcstat_ptracer2t_del2       =   0.0000000000000000E+00
(PID.TID 0000.0001) %MON trcstat_ptracer2u_max        =   1.4611208178774142E-02
(PID.TID 0000.0001) %MON trcstat_ptracer2u_min        =   4.5591807555369792E-06
(PID.TID 0000.0001) %MON trcstat_ptracer2u_mean       =   3.9011552679138445E-04
(PID.TID 0000.0001) %MON trcstat_ptracer2u_sd         =   1.9665813271787518E-03
(PID.TID 0000.0001) %MON trcstat_ptracer2u_del2       =   0.0000000000000000E+00
(PID.TID 0000.0001) %MON trcstat_ptracer2v_max        =   1.5567208121363939E-02
(PID.TID 0000.0001) %MON trcstat_ptracer2v_min        =   4.5734330401846156E-06
(PID.TID 0000.0001) %MON trcstat_ptracer2v_mean       =   4.5164102134273793E-04
(PID.TID 0000.0001) %MON trcstat_ptracer2v_sd         =   2.2456779504108435E-03
(PID.TID 0000.0001) %MON trcstat_ptracer2v_del2       =   0.0000000000000000E+00
(PID.TID 0000.0001) %MON trcstat_ptracer2w_max        =   1.0821372651934173E-03
(PID.TID 0000.0001) %MON trcstat_ptracer2w_min        =   4.4795704287248678E-07
(PID.TID 0000.0001) %MON trcstat_ptracer2w_mean       =   2.5907774371171869E-05
(PID.TID 0000.0001) %MON trcstat_ptracer2w_sd         =   1.3594091550647142E-04
(PID.TID 0000.0001) %MON trcstat_ptracer2w_del2       =   0.0000000000000000E+00
(PID.TID 0000.0001) %MON trcstat_ptracer2x_max        =   1.4285699131489341E-02
(PID.TID 0000.0001) %MON trcstat_ptracer2x_min        =   4.5539152322840465E-06
(PID.TID 0000.0001) %MON trcstat_ptracer2x_mean       =   3.7397425288844218E-04
(PID.TID 0000.0001) %MON trcstat_ptracer2x_sd         =   1.8936364308720884E-03
(PID.TID 0000.0001) %MON trcstat_ptracer2x_del2       =   0.0000000000000000E+00
(PID.TID 0000.0001) %MON trcstat_ptracer2y_max        =   1.5388805565675318E-02
(PID.TID 0000.0001) %MON trcstat_ptracer2y_min        =   4.5709012719935051E-06
(PID.TID 0000.0001) %MON trcstat_ptracer2y_mean       =   4.3792022863858854E-04
(PID.TID 0000.0001) %MON trcstat_ptracer2y_sd         =   2.1829386162187871E-03
(PID.TID 0000.0001) %MON trcstat_ptracer2y_del2       =   0.0000000000000000E+00
(PID.TID 0000.0001) %MON trcstat_ptracer2z_max        =   1.3915591029724927E-02
(PID.TID 0000.0001) %MON trcstat_ptracer2z_min        =   4.5476448897071564E-06
(PID.TID 0000.0001) %MON trcstat_ptracer2z_mean       =   3.5746818205408584E-04
(PID.TID 0000.0001) %MON trcstat_ptracer2z_sd         =   1.8187848599921467E-03
(PID.TID 0000.0001) %MON trcstat_ptracer2z_del2       =   0.0000000000000000E+00
(PID.TID 0000.0001) %MON trcstat_ptracer2A_max        =   1.5181102148165935E-02
(PID.TID 0000.0001) %MON trcstat_ptracer2A_min        =   4.5678823872859258E-06
(PID.TID 0000.0001) %MON trcstat_ptracer2A_mean       =   4.2349656518449381E-04
(PID.TID 0000.0001) %MON trcstat_ptracer2A_sd         =   2.1174164863917017E-03
(PID.TID 0000.0001) %MON trcstat_ptracer2A_del2       =   0.0000000000000000E+00
(PID.TID 0000.0001) %MON trcstat_ptracer2B_max        =   1.4940361276153249E-02
(PID.TID 0000.0001) %MON trcstat_ptracer2B_min        =   4.5642835078400645E-06
(PID.TID 0000.0001) %MON trcstat_ptracer2B_mean       =   4.0844307475857268E-04
(PID.TID 0000.0001) %MON trcstat_ptracer2B_sd         =   2.0493259905349261E-03
(PID.TID 0000.0001) %MON trcstat_ptracer2B_del2       =   0.0000000000000000E+00
(PID.TID 0000.0001) %MON trcstat_ptracer2C_max        =   1.4662765774683364E-02
(PID.TID 0000.0001) %MON trcstat_ptracer2C_min        =   4.5599944026705564E-06
(PID.TID 0000.0001) %MON trcstat_ptracer2C_mean       =   3.9283934971380785E-04
(PID.TID 0000.0001) %MON trcstat_ptracer2C_sd         =   1.9788783008565878E-03
(PID.TID 0000.0001) %MON trcstat_ptracer2C_del2       =   0.0000000000000000E+00
(PID.TID 0000.0001) %MON trcstat_ptracer2D_max        =   1.4344573977807265E-02
(PID.TID 0000.0001) %MON trcstat_ptracer2D_min        =   4.5548843962973780E-06
(PID.TID 0000.0001) %MON trcstat_ptracer2D_mean       =   3.7676936006277712E-04
(PID.TID 0000.0001) %MON trcstat_ptracer2D_sd         =   1.9062811124683039E-03
(PID.TID 0000.0001) %MON trcstat_ptracer2D_del2       =   0.0000000000000000E+00
(PID.TID 0000.0001) // =======================================================
(PID.TID 0000.0001) // End MONITOR ptracers field statistics
(PID.TID 0000.0001) // =======================================================
(PID.TID 0000.0001) // =======================================================
(PID.TID 0000.0001) // Begin MONITOR EXF statistics
(PID.TID 0000.0001) // =======================================================
(PID.TID 0000.0001) %MON exf_tsnumber                 =                     0
(PID.TID 0000.0001) %MON exf_time_sec                 =   0.0000000000000000E+00
(PID.TID 0000.0001) %MON exf_ustress_max              =   0.0000000000000000E+00
(PID.TID 0000.0001) %MON exf_ustress_min              =   0.0000000000000000E+00
(PID.TID 0000.0001) %MON exf_ustress_mean             =   0.0000000000000000E+00
(PID.TID 0000.0001) %MON exf_ustress_sd               =   0.0000000000000000E+00
(PID.TID 0000.0001) %MON exf_ustress_del2             =   0.0000000000000000E+00
(PID.TID 0000.0001) %MON exf_vstress_max              =   0.0000000000000000E+00
(PID.TID 0000.0001) %MON exf_vstress_min              =   0.0000000000000000E+00
(PID.TID 0000.0001) %MON exf_vstress_mean             =   0.0000000000000000E+00
(PID.TID 0000.0001) %MON exf_vstress_sd               =   0.0000000000000000E+00
(PID.TID 0000.0001) %MON exf_vstress_del2             =   0.0000000000000000E+00
(PID.TID 0000.0001) %MON exf_hflux_max                =   0.0000000000000000E+00
(PID.TID 0000.0001) %MON exf_hflux_min                =   0.0000000000000000E+00
(PID.TID 0000.0001) %MON exf_hflux_mean               =   0.0000000000000000E+00
(PID.TID 0000.0001) %MON exf_hflux_sd                 =   0.0000000000000000E+00
(PID.TID 0000.0001) %MON exf_hflux_del2               =   0.0000000000000000E+00
(PID.TID 0000.0001) %MON exf_sflux_max                =   0.0000000000000000E+00
(PID.TID 0000.0001) %MON exf_sflux_min                =   0.0000000000000000E+00
(PID.TID 0000.0001) %MON exf_sflux_mean               =   0.0000000000000000E+00
(PID.TID 0000.0001) %MON exf_sflux_sd                 =   0.0000000000000000E+00
(PID.TID 0000.0001) %MON exf_sflux_del2               =   0.0000000000000000E+00
(PID.TID 0000.0001) %MON exf_uwind_max                =   0.0000000000000000E+00
(PID.TID 0000.0001) %MON exf_uwind_min                =   0.0000000000000000E+00
(PID.TID 0000.0001) %MON exf_uwind_mean               =   0.0000000000000000E+00
(PID.TID 0000.0001) %MON exf_uwind_sd                 =   0.0000000000000000E+00
(PID.TID 0000.0001) %MON exf_uwind_del2               =   0.0000000000000000E+00
(PID.TID 0000.0001) %MON exf_vwind_max                =   0.0000000000000000E+00
(PID.TID 0000.0001) %MON exf_vwind_min                =   0.0000000000000000E+00
(PID.TID 0000.0001) %MON exf_vwind_mean               =   0.0000000000000000E+00
(PID.TID 0000.0001) %MON exf_vwind_sd                 =   0.0000000000000000E+00
(PID.TID 0000.0001) %MON exf_vwind_del2               =   0.0000000000000000E+00
(PID.TID 0000.0001) %MON exf_wspeed_max               =   0.0000000000000000E+00
(PID.TID 0000.0001) %MON exf_wspeed_min               =   0.0000000000000000E+00
(PID.TID 0000.0001) %MON exf_wspeed_mean              =   0.0000000000000000E+00
(PID.TID 0000.0001) %MON exf_wspeed_sd                =   0.0000000000000000E+00
(PID.TID 0000.0001) %MON exf_wspeed_del2              =   0.0000000000000000E+00
(PID.TID 0000.0001) %MON exf_evap_max                 =   0.0000000000000000E+00
(PID.TID 0000.0001) %MON exf_evap_min                 =   0.0000000000000000E+00
(PID.TID 0000.0001) %MON exf_evap_mean                =   0.0000000000000000E+00
(PID.TID 0000.0001) %MON exf_evap_sd                  =   0.0000000000000000E+00
(PID.TID 0000.0001) %MON exf_evap_del2                =   0.0000000000000000E+00
(PID.TID 0000.0001) // =======================================================
(PID.TID 0000.0001) // End MONITOR EXF statistics
(PID.TID 0000.0001) // =======================================================
 EXTERNAL_FIELDS_LOAD,         0 : iP,iLd,i0,i1=   12    0   12    1 ; Wght=  0.5000000000  0.5000000000
 EXTERNAL_FIELDS_LOAD, it=         0 : Reading new data, i0,i1=   12    1 (prev=   12    0 )
(PID.TID 0000.0001)  MDS_READ_FIELD: opening global file: ../input/input/loc1_taux_monsurf.bin
(PID.TID 0000.0001)  MDS_READ_FIELD: opening global file: ../input/input/loc1_taux_monsurf.bin
(PID.TID 0000.0001)  MDS_READ_FIELD: opening global file: ../input/input/loc1_tauy_monsurf.bin
(PID.TID 0000.0001)  MDS_READ_FIELD: opening global file: ../input/input/loc1_tauy_monsurf.bin
(PID.TID 0000.0001)  MDS_READ_FIELD: opening global file: ../input/input/loc1_temp_monsurf.bin
(PID.TID 0000.0001)  MDS_READ_FIELD: opening global file: ../input/input/loc1_temp_monsurf.bin
(PID.TID 0000.0001) // =======================================================
(PID.TID 0000.0001) // Begin MONITOR dynamic field statistics
(PID.TID 0000.0001) // =======================================================
(PID.TID 0000.0001) %MON time_tsnumber                =                     1
(PID.TID 0000.0001) %MON time_secondsf                =   3.6000000000000000E+03
(PID.TID 0000.0001) %MON dynstat_eta_max              =   0.0000000000000000E+00
(PID.TID 0000.0001) %MON dynstat_eta_min              =   0.0000000000000000E+00
(PID.TID 0000.0001) %MON dynstat_eta_mean             =   0.0000000000000000E+00
(PID.TID 0000.0001) %MON dynstat_eta_sd               =   0.0000000000000000E+00
(PID.TID 0000.0001) %MON dynstat_eta_del2             =   0.0000000000000000E+00
(PID.TID 0000.0001) %MON dynstat_uvel_max             =   0.0000000000000000E+00
(PID.TID 0000.0001) %MON dynstat_uvel_min             =   0.0000000000000000E+00
(PID.TID 0000.0001) %MON dynstat_uvel_mean            =   0.0000000000000000E+00
(PID.TID 0000.0001) %MON dynstat_uvel_sd              =   0.0000000000000000E+00
(PID.TID 0000.0001) %MON dynstat_uvel_del2            =   0.0000000000000000E+00
(PID.TID 0000.0001) %MON dynstat_vvel_max             =   0.0000000000000000E+00
(PID.TID 0000.0001) %MON dynstat_vvel_min             =   0.0000000000000000E+00
(PID.TID 0000.0001) %MON dynstat_vvel_mean            =   0.0000000000000000E+00
(PID.TID 0000.0001) %MON dynstat_vvel_sd              =   0.0000000000000000E+00
(PID.TID 0000.0001) %MON dynstat_vvel_del2            =   0.0000000000000000E+00
(PID.TID 0000.0001) %MON dynstat_wvel_max             =   0.0000000000000000E+00
(PID.TID 0000.0001) %MON dynstat_wvel_min             =   0.0000000000000000E+00
(PID.TID 0000.0001) %MON dynstat_wvel_mean            =   0.0000000000000000E+00
(PID.TID 0000.0001) %MON dynstat_wvel_sd              =   0.0000000000000000E+00
(PID.TID 0000.0001) %MON dynstat_wvel_del2            =   0.0000000000000000E+00
(PID.TID 0000.0001) %MON dynstat_theta_max            =   8.2824962465671614E+00
(PID.TID 0000.0001) %MON dynstat_theta_min            =   1.5167006338840423E+00
(PID.TID 0000.0001) %MON dynstat_theta_mean           =   2.8239040467417342E+00
(PID.TID 0000.0001) %MON dynstat_theta_sd             =   1.3643285852844826E+00
(PID.TID 0000.0001) %MON dynstat_theta_del2           =   0.0000000000000000E+00
(PID.TID 0000.0001) %MON dynstat_salt_max             =   3.5000000000000000E+01
(PID.TID 0000.0001) %MON dynstat_salt_min             =   3.5000000000000000E+01
(PID.TID 0000.0001) %MON dynstat_salt_mean            =   3.4999999999999986E+01
(PID.TID 0000.0001) %MON dynstat_salt_sd              =   1.4210854715202004E-14
(PID.TID 0000.0001) %MON dynstat_salt_del2            =   0.0000000000000000E+00
(PID.TID 0000.0001) %MON dynstat_sst_max              =   8.2824962465671614E+00
(PID.TID 0000.0001) %MON dynstat_sst_min              =   8.2824962465671614E+00
(PID.TID 0000.0001) %MON dynstat_sst_mean             =   8.2824962465671614E+00
(PID.TID 0000.0001) %MON dynstat_sst_sd               =   0.0000000000000000E+00
(PID.TID 0000.0001) %MON dynstat_sst_del2             =   0.0000000000000000E+00
(PID.TID 0000.0001) %MON dynstat_sss_max              =   3.5000000000000000E+01
(PID.TID 0000.0001) %MON dynstat_sss_min              =   3.5000000000000000E+01
(PID.TID 0000.0001) %MON dynstat_sss_mean             =   3.5000000000000000E+01
(PID.TID 0000.0001) %MON dynstat_sss_sd               =   0.0000000000000000E+00
(PID.TID 0000.0001) %MON dynstat_sss_del2             =   0.0000000000000000E+00
(PID.TID 0000.0001) %MON forcing_qnet_max             =   0.0000000000000000E+00
(PID.TID 0000.0001) %MON forcing_qnet_min             =   0.0000000000000000E+00
(PID.TID 0000.0001) %MON forcing_qnet_mean            =   0.0000000000000000E+00
(PID.TID 0000.0001) %MON forcing_qnet_sd              =   0.0000000000000000E+00
(PID.TID 0000.0001) %MON forcing_qnet_del2            =   0.0000000000000000E+00
(PID.TID 0000.0001) %MON forcing_qsw_max              =   0.0000000000000000E+00
(PID.TID 0000.0001) %MON forcing_qsw_min              =   0.0000000000000000E+00
(PID.TID 0000.0001) %MON forcing_qsw_mean             =   0.0000000000000000E+00
(PID.TID 0000.0001) %MON forcing_qsw_sd               =   0.0000000000000000E+00
(PID.TID 0000.0001) %MON forcing_qsw_del2             =   0.0000000000000000E+00
(PID.TID 0000.0001) %MON forcing_empmr_max            =   0.0000000000000000E+00
(PID.TID 0000.0001) %MON forcing_empmr_min            =   0.0000000000000000E+00
(PID.TID 0000.0001) %MON forcing_empmr_mean           =   0.0000000000000000E+00
(PID.TID 0000.0001) %MON forcing_empmr_sd             =   0.0000000000000000E+00
(PID.TID 0000.0001) %MON forcing_empmr_del2           =   0.0000000000000000E+00
(PID.TID 0000.0001) %MON forcing_fu_max               =   2.2645000219345093E+00
(PID.TID 0000.0001) %MON forcing_fu_min               =   2.2645000219345093E+00
(PID.TID 0000.0001) %MON forcing_fu_mean              =   2.2645000219345093E+00
(PID.TID 0000.0001) %MON forcing_fu_sd                =   0.0000000000000000E+00
(PID.TID 0000.0001) %MON forcing_fu_del2              =   0.0000000000000000E+00
(PID.TID 0000.0001) %MON forcing_fv_max               =  -4.1300000250339508E-01
(PID.TID 0000.0001) %MON forcing_fv_min               =  -4.1300000250339508E-01
(PID.TID 0000.0001) %MON forcing_fv_mean              =  -4.1300000250339503E-01
(PID.TID 0000.0001) %MON forcing_fv_sd                =   5.5511151231257827E-17
(PID.TID 0000.0001) %MON forcing_fv_del2              =   0.0000000000000000E+00
(PID.TID 0000.0001) %MON advcfl_uvel_max              =   0.0000000000000000E+00
(PID.TID 0000.0001) %MON advcfl_vvel_max              =   0.0000000000000000E+00
(PID.TID 0000.0001) %MON advcfl_wvel_max              =   0.0000000000000000E+00
(PID.TID 0000.0001) %MON advcfl_W_hf_max              =   0.0000000000000000E+00
(PID.TID 0000.0001) %MON pe_b_mean                    =   0.0000000000000000E+00
(PID.TID 0000.0001) %MON ke_max                       =   0.0000000000000000E+00
(PID.TID 0000.0001) %MON ke_mean                      =   0.0000000000000000E+00
(PID.TID 0000.0001) %MON ke_vol                       =   3.0811817830111180E+13
(PID.TID 0000.0001) %MON vort_r_min                   =   0.0000000000000000E+00
(PID.TID 0000.0001) %MON vort_r_max                   =   0.0000000000000000E+00
(PID.TID 0000.0001) %MON vort_a_mean                  =  -1.0312619976227577E-04
(PID.TID 0000.0001) %MON vort_a_sd                    =   2.8760747774580336E-12
(PID.TID 0000.0001) %MON vort_p_mean                  =  -1.0312619976227577E-04
(PID.TID 0000.0001) %MON vort_p_sd                    =   2.8760747774580336E-12
(PID.TID 0000.0001) %MON surfExpan_theta_mean         =   0.0000000000000000E+00
(PID.TID 0000.0001) %MON surfExpan_salt_mean          =   0.0000000000000000E+00
(PID.TID 0000.0001) // =======================================================
(PID.TID 0000.0001) // End MONITOR dynamic field statistics
(PID.TID 0000.0001) // =======================================================
(PID.TID 0000.0001) // =======================================================
(PID.TID 0000.0001) // Begin MONITOR ptracer field statistics
(PID.TID 0000.0001) // =======================================================
(PID.TID 0000.0001) %MON trcstat_ptracer01_max        =   2.2359128671461658E+03
(PID.TID 0000.0001) %MON trcstat_ptracer01_min        =   2.0729491693981313E+03
(PID.TID 0000.0001) %MON trcstat_ptracer01_mean       =   2.2089820681759443E+03
(PID.TID 0000.0001) %MON trcstat_ptracer01_sd         =   4.0007753440317138E+01
(PID.TID 0000.0001) %MON trcstat_ptracer01_del2       =   0.0000000000000000E+00
(PID.TID 0000.0001) %MON trcstat_ptracer02_max        =   3.5384790551068740E-01
(PID.TID 0000.0001) %MON trcstat_ptracer02_min        =   3.0139655765456928E-05
(PID.TID 0000.0001) %MON trcstat_ptracer02_mean       =   6.1158483557451765E-03
(PID.TID 0000.0001) %MON trcstat_ptracer02_sd         =   4.1933794518342116E-02
(PID.TID 0000.0001) %MON trcstat_ptracer02_del2       =   0.0000000000000000E+00
(PID.TID 0000.0001) %MON trcstat_ptracer03_max        =   2.5279880056235687E-01
(PID.TID 0000.0001) %MON trcstat_ptracer03_min        =   6.6231075733714498E-04
(PID.TID 0000.0001) %MON trcstat_ptracer03_mean       =   1.7381074352457320E-02
(PID.TID 0000.0001) %MON trcstat_ptracer03_sd         =   3.6876396390624087E-02
(PID.TID 0000.0001) %MON trcstat_ptracer03_del2       =   0.0000000000000000E+00
(PID.TID 0000.0001) %MON trcstat_ptracer04_max        =   3.4238805000486373E+01
(PID.TID 0000.0001) %MON trcstat_ptracer04_min        =   1.4548814797482390E+01
(PID.TID 0000.0001) %MON trcstat_ptracer04_mean       =   2.9892202080417562E+01
(PID.TID 0000.0001) %MON trcstat_ptracer04_sd         =   3.8828382891387845E+00
(PID.TID 0000.0001) %MON trcstat_ptracer04_del2       =   0.0000000000000000E+00
(PID.TID 0000.0001) %MON trcstat_ptracer05_max        =   2.3348064362781979E+00
(PID.TID 0000.0001) %MON trcstat_ptracer05_min        =   1.1946945007246048E+00
(PID.TID 0000.0001) %MON trcstat_ptracer05_mean       =   2.0209400143313543E+00
(PID.TID 0000.0001) %MON trcstat_ptracer05_sd         =   2.4245451432250978E-01
(PID.TID 0000.0001) %MON trcstat_ptracer05_del2       =   0.0000000000000000E+00
(PID.TID 0000.0001) %MON trcstat_ptracer06_max        =   9.3254103221541911E+01
(PID.TID 0000.0001) %MON trcstat_ptracer06_min        =   3.4057783072833003E+00
(PID.TID 0000.0001) %MON trcstat_ptracer06_mean       =   6.1182553272752806E+01
(PID.TID 0000.0001) %MON trcstat_ptracer06_sd         =   2.6240953399650873E+01
(PID.TID 0000.0001) %MON trcstat_ptracer06_del2       =   0.0000000000000000E+00
(PID.TID 0000.0001) %MON trcstat_ptracer07_max        =   9.2531921650626655E-04
(PID.TID 0000.0001) %MON trcstat_ptracer07_min        =   2.6173371759937151E-06
(PID.TID 0000.0001) %MON trcstat_ptracer07_mean       =   6.3720354722190638E-04
(PID.TID 0000.0001) %MON trcstat_ptracer07_sd         =   1.9801880585149277E-04
(PID.TID 0000.0001) %MON trcstat_ptracer07_del2       =   0.0000000000000000E+00
(PID.TID 0000.0001) %MON trcstat_ptracer08_max        =   1.2571686840486842E+01
(PID.TID 0000.0001) %MON trcstat_ptracer08_min        =   4.1206696743781081E-07
(PID.TID 0000.0001) %MON trcstat_ptracer08_mean       =   5.3439745278915807E-01
(PID.TID 0000.0001) %MON trcstat_ptracer08_sd         =   1.9405984922933814E+00
(PID.TID 0000.0001) %MON trcstat_ptracer08_del2       =   0.0000000000000000E+00
(PID.TID 0000.0001) %MON trcstat_ptracer09_max        =   1.6762886982392289E+00
(PID.TID 0000.0001) %MON trcstat_ptracer09_min        =   5.6686161723549113E-08
(PID.TID 0000.0001) %MON trcstat_ptracer09_mean       =   7.1257153446525626E-02
(PID.TID 0000.0001) %MON trcstat_ptracer09_sd         =   2.5875944280990865E-01
(PID.TID 0000.0001) %MON trcstat_ptracer09_del2       =   0.0000000000000000E+00
(PID.TID 0000.0001) %MON trcstat_ptracer10_max        =   1.0476405950107982E-01
(PID.TID 0000.0001) %MON trcstat_ptracer10_min        =   3.4338913948369674E-09
(PID.TID 0000.0001) %MON trcstat_ptracer10_mean       =   4.4533121508801661E-03
(PID.TID 0000.0001) %MON trcstat_ptracer10_sd         =   1.6171654284773691E-02
(PID.TID 0000.0001) %MON trcstat_ptracer10_del2       =   0.0000000000000000E+00
(PID.TID 0000.0001) %MON trcstat_ptracer11_max        =   1.0477192329938742E-04
(PID.TID 0000.0001) %MON trcstat_ptracer11_min        =   3.6518788260127418E-12
(PID.TID 0000.0001) %MON trcstat_ptracer11_mean       =   4.4538254850947851E-06
(PID.TID 0000.0001) %MON trcstat_ptracer11_sd         =   1.6173253903896950E-05
(PID.TID 0000.0001) %MON trcstat_ptracer11_del2       =   0.0000000000000000E+00
(PID.TID 0000.0001) %MON trcstat_ptracer12_max        =   1.2599770769546097E+00
(PID.TID 0000.0001) %MON trcstat_ptracer12_min        =   4.6372442789416220E-02
(PID.TID 0000.0001) %MON trcstat_ptracer12_mean       =   4.6869821319251470E-01
(PID.TID 0000.0001) %MON trcstat_ptracer12_sd         =   4.4399574963918870E-01
(PID.TID 0000.0001) %MON trcstat_ptracer12_del2       =   0.0000000000000000E+00
(PID.TID 0000.0001) %MON trcstat_ptracer13_max        =   1.6799712551366072E-01
(PID.TID 0000.0001) %MON trcstat_ptracer13_min        =   6.1850209379615204E-03
(PID.TID 0000.0001) %MON trcstat_ptracer13_mean       =   6.2495635518382456E-02
(PID.TID 0000.0001) %MON trcstat_ptracer13_sd         =   5.9198584895466401E-02
(PID.TID 0000.0001) %MON trcstat_ptracer13_del2       =   0.0000000000000000E+00
(PID.TID 0000.0001) %MON trcstat_ptracer14_max        =   1.0499809087009730E-02
(PID.TID 0000.0001) %MON trcstat_ptracer14_min        =   3.8643701550049471E-04
(PID.TID 0000.0001) %MON trcstat_ptracer14_mean       =   3.9058182916473041E-03
(PID.TID 0000.0001) %MON trcstat_ptracer14_sd         =   3.6999644045769575E-03
(PID.TID 0000.0001) %MON trcstat_ptracer14_del2       =   0.0000000000000000E+00
(PID.TID 0000.0001) %MON trcstat_ptracer15_max        =   5.9355214118973021E-01
(PID.TID 0000.0001) %MON trcstat_ptracer15_min        =   7.6430770332148845E-02
(PID.TID 0000.0001) %MON trcstat_ptracer15_mean       =   3.0110222007521525E-01
(PID.TID 0000.0001) %MON trcstat_ptracer15_sd         =   1.6092630391204679E-01
(PID.TID 0000.0001) %MON trcstat_ptracer15_del2       =   0.0000000000000000E+00
(PID.TID 0000.0001) %MON trcstat_ptracer16_max        =   1.0499832830643229E-05
(PID.TID 0000.0001) %MON trcstat_ptracer16_min        =   3.8669266855604099E-07
(PID.TID 0000.0001) %MON trcstat_ptracer16_mean       =   3.9061384016068843E-06
(PID.TID 0000.0001) %MON trcstat_ptracer16_sd         =   3.6998560956586651E-06
(PID.TID 0000.0001) %MON trcstat_ptracer16_del2       =   0.0000000000000000E+00
(PID.TID 0000.0001) %MON trcstat_ptracer17_max        =   8.2663875197498418E-02
(PID.TID 0000.0001) %MON trcstat_ptracer17_min        =   4.9573329175755711E-03
(PID.TID 0000.0001) %MON trcstat_ptracer17_mean       =   5.5142077516353916E-02
(PID.TID 0000.0001) %MON trcstat_ptracer17_sd         =   1.7445576909767082E-02
(PID.TID 0000.0001) %MON trcstat_ptracer17_del2       =   0.0000000000000000E+00
(PID.TID 0000.0001) %MON trcstat_ptracer18_max        =   2.3510737573405368E+03
(PID.TID 0000.0001) %MON trcstat_ptracer18_min        =   2.2763737041535223E+03
(PID.TID 0000.0001) %MON trcstat_ptracer18_mean       =   2.3233197185002155E+03
(PID.TID 0000.0001) %MON trcstat_ptracer18_sd         =   2.5000759917009958E+01
(PID.TID 0000.0001) %MON trcstat_ptracer18_del2       =   0.0000000000000000E+00
(PID.TID 0000.0001) %MON trcstat_ptracer19_max        =   1.6316141096422641E+01
(PID.TID 0000.0001) %MON trcstat_ptracer19_min        =   4.3193882073687808E+00
(PID.TID 0000.0001) %MON trcstat_ptracer19_mean       =   5.0005319468071887E+00
(PID.TID 0000.0001) %MON trcstat_ptracer19_sd         =   8.0750385786443701E-01
(PID.TID 0000.0001) %MON trcstat_ptracer19_del2       =   0.0000000000000000E+00
(PID.TID 0000.0001) %MON trcstat_ptracer20_max        =   5.5046745177973533E-02
(PID.TID 0000.0001) %MON trcstat_ptracer20_min        =   1.5252080676982148E-05
(PID.TID 0000.0001) %MON trcstat_ptracer20_mean       =   1.9128367840890795E-03
(PID.TID 0000.0001) %MON trcstat_ptracer20_sd         =   9.5080235865916216E-03
(PID.TID 0000.0001) %MON trcstat_ptracer20_del2       =   0.0000000000000000E+00
(PID.TID 0000.0001) %MON trcstat_ptracer21_max        =   5.5046909782693894E-02
(PID.TID 0000.0001) %MON trcstat_ptracer21_min        =   1.5252080684408616E-05
(PID.TID 0000.0001) %MON trcstat_ptracer21_mean       =   1.9128416960434626E-03
(PID.TID 0000.0001) %MON trcstat_ptracer21_sd         =   9.5080221090277101E-03
(PID.TID 0000.0001) %MON trcstat_ptracer21_del2       =   0.0000000000000000E+00
(PID.TID 0000.0001) %MON trcstat_ptracer22_max        =   5.5047046040807512E-02
(PID.TID 0000.0001) %MON trcstat_ptracer22_min        =   1.5252080694785175E-05
(PID.TID 0000.0001) %MON trcstat_ptracer22_mean       =   1.9128457621085369E-03
(PID.TID 0000.0001) %MON trcstat_ptracer22_sd         =   9.5080049026689106E-03
(PID.TID 0000.0001) %MON trcstat_ptracer22_del2       =   0.0000000000000000E+00
(PID.TID 0000.0001) %MON trcstat_ptracer23_max        =   5.5047158833903882E-02
(PID.TID 0000.0001) %MON trcstat_ptracer23_min        =   1.5252080709284793E-05
(PID.TID 0000.0001) %MON trcstat_ptracer23_mean       =   1.9128491279551824E-03
(PID.TID 0000.0001) %MON trcstat_ptracer23_sd         =   9.5079683283843947E-03
(PID.TID 0000.0001) %MON trcstat_ptracer23_del2       =   0.0000000000000000E+00
(PID.TID 0000.0001) %MON trcstat_ptracer24_max        =   5.5047209117577607E-03
(PID.TID 0000.0001) %MON trcstat_ptracer24_min        =   1.5252080729545749E-06
(PID.TID 0000.0001) %MON trcstat_ptracer24_mean       =   1.9128506268498749E-04
(PID.TID 0000.0001) %MON trcstat_ptracer24_sd         =   9.5078998911776291E-04
(PID.TID 0000.0001) %MON trcstat_ptracer24_del2       =   0.0000000000000000E+00
(PID.TID 0000.0001) %MON trcstat_ptracer25_max        =   5.5047209117577614E-02
(PID.TID 0000.0001) %MON trcstat_ptracer25_min        =   1.5252080729545725E-05
(PID.TID 0000.0001) %MON trcstat_ptracer25_mean       =   1.9128506268498750E-03
(PID.TID 0000.0001) %MON trcstat_ptracer25_sd         =   9.5078998911776302E-03
(PID.TID 0000.0001) %MON trcstat_ptracer25_del2       =   0.0000000000000000E+00
(PID.TID 0000.0001) %MON trcstat_ptracer26_max        =   5.8337870152450413E-02
(PID.TID 0000.0001) %MON trcstat_ptracer26_min        =   1.5252080757853122E-05
(PID.TID 0000.0001) %MON trcstat_ptracer26_mean       =   1.9563130932778298E-03
(PID.TID 0000.0001) %MON trcstat_ptracer26_sd         =   9.7511848166186715E-03
(PID.TID 0000.0001) %MON trcstat_ptracer26_del2       =   0.0000000000000000E+00
(PID.TID 0000.0001) %MON trcstat_ptracer27_max        =   5.5046951335943842E-03
(PID.TID 0000.0001) %MON trcstat_ptracer27_min        =   1.5252080757853143E-06
(PID.TID 0000.0001) %MON trcstat_ptracer27_mean       =   1.9128429090211967E-04
(PID.TID 0000.0001) %MON trcstat_ptracer27_sd         =   9.5077512203289079E-04
(PID.TID 0000.0001) %MON trcstat_ptracer27_del2       =   0.0000000000000000E+00
(PID.TID 0000.0001) %MON trcstat_ptracer28_max        =   5.5046951335943846E-02
(PID.TID 0000.0001) %MON trcstat_ptracer28_min        =   1.5252080757853122E-05
(PID.TID 0000.0001) %MON trcstat_ptracer28_mean       =   1.9128429090211957E-03
(PID.TID 0000.0001) %MON trcstat_ptracer28_sd         =   9.5077512203289097E-03
(PID.TID 0000.0001) %MON trcstat_ptracer28_del2       =   0.0000000000000000E+00
(PID.TID 0000.0001) %MON trcstat_ptracer29_max        =   5.8178289241913428E-02
(PID.TID 0000.0001) %MON trcstat_ptracer29_min        =   1.5252080797423321E-05
(PID.TID 0000.0001) %MON trcstat_ptracer29_mean       =   1.9546703946791552E-03
(PID.TID 0000.0001) %MON trcstat_ptracer29_sd         =   9.7416664242118006E-03
(PID.TID 0000.0001) %MON trcstat_ptracer29_del2       =   0.0000000000000000E+00
(PID.TID 0000.0001) %MON trcstat_ptracer30_max        =   5.5047080438428205E-03
(PID.TID 0000.0001) %MON trcstat_ptracer30_min        =   1.5252080797423344E-06
(PID.TID 0000.0001) %MON trcstat_ptracer30_mean       =   1.9128467661989692E-04
(PID.TID 0000.0001) %MON trcstat_ptracer30_sd         =   9.5076227025788244E-04
(PID.TID 0000.0001) %MON trcstat_ptracer30_del2       =   0.0000000000000000E+00
(PID.TID 0000.0001) %MON trcstat_ptracer31_max        =   5.5047080438428209E-02
(PID.TID 0000.0001) %MON trcstat_ptracer31_min        =   1.5252080797423321E-05
(PID.TID 0000.0001) %MON trcstat_ptracer31_mean       =   1.9128467661989692E-03
(PID.TID 0000.0001) %MON trcstat_ptracer31_sd         =   9.5076227025788287E-03
(PID.TID 0000.0001) %MON trcstat_ptracer31_del2       =   0.0000000000000000E+00
(PID.TID 0000.0001) %MON trcstat_ptracer32_max        =   5.7700226351570356E-02
(PID.TID 0000.0001) %MON trcstat_ptracer32_min        =   1.5252080852720903E-05
(PID.TID 0000.0001) %MON trcstat_ptracer32_mean       =   1.9505087561290486E-03
(PID.TID 0000.0001) %MON trcstat_ptracer32_sd         =   9.7177496743863258E-03
(PID.TID 0000.0001) %MON trcstat_ptracer32_del2       =   0.0000000000000000E+00
(PID.TID 0000.0001) %MON trcstat_ptracer33_max        =   5.5047187308275881E-03
(PID.TID 0000.0001) %MON trcstat_ptracer33_min        =   1.5252080852720926E-06
(PID.TID 0000.0001) %MON trcstat_ptracer33_mean       =   1.9128499591308646E-04
(PID.TID 0000.0001) %MON trcstat_ptracer33_sd         =   9.5074313488244385E-04
(PID.TID 0000.0001) %MON trcstat_ptracer33_del2       =   0.0000000000000000E+00
(PID.TID 0000.0001) %MON trcstat_ptracer34_max        =   5.5047187308275881E-02
(PID.TID 0000.0001) %MON trcstat_ptracer34_min        =   1.5252080852720903E-05
(PID.TID 0000.0001) %MON trcstat_ptracer34_mean       =   1.9128499591308655E-03
(PID.TID 0000.0001) %MON trcstat_ptracer34_sd         =   9.5074313488244400E-03
(PID.TID 0000.0001) %MON trcstat_ptracer34_del2       =   0.0000000000000000E+00
(PID.TID 0000.0001) %MON trcstat_ptracer35_max        =   5.7267131856827184E-02
(PID.TID 0000.0001) %MON trcstat_ptracer35_min        =   1.5252080929997676E-05
(PID.TID 0000.0001) %MON trcstat_ptracer35_mean       =   1.9465998731130543E-03
(PID.TID 0000.0001) %MON trcstat_ptracer35_sd         =   9.6952689944975225E-03
(PID.TID 0000.0001) %MON trcstat_ptracer35_del2       =   0.0000000000000000E+00
(PID.TID 0000.0001) %MON trcstat_ptracer36_max        =   5.5047275774234451E-03
(PID.TID 0000.0001) %MON trcstat_ptracer36_min        =   1.5252080929997699E-06
(PID.TID 0000.0001) %MON trcstat_ptracer36_mean       =   1.9128526022068901E-04
(PID.TID 0000.0001) %MON trcstat_ptracer36_sd         =   9.5071543610569700E-04
(PID.TID 0000.0001) %MON trcstat_ptracer36_del2       =   0.0000000000000000E+00
(PID.TID 0000.0001) %MON trcstat_ptracer37_max        =   5.5047275774234454E-02
(PID.TID 0000.0001) %MON trcstat_ptracer37_min        =   1.5252080929997676E-05
(PID.TID 0000.0001) %MON trcstat_ptracer37_mean       =   1.9128526022068909E-03
(PID.TID 0000.0001) %MON trcstat_ptracer37_sd         =   9.5071543610569676E-03
(PID.TID 0000.0001) %MON trcstat_ptracer37_del2       =   0.0000000000000000E+00
(PID.TID 0000.0001) %MON trcstat_ptracer38_max        =   5.6873022058604270E-02
(PID.TID 0000.0001) %MON trcstat_ptracer38_min        =   1.5252081037990809E-05
(PID.TID 0000.0001) %MON trcstat_ptracer38_mean       =   1.9429633984466494E-03
(PID.TID 0000.0001) %MON trcstat_ptracer38_sd         =   9.6742818835787187E-03
(PID.TID 0000.0001) %MON trcstat_ptracer38_del2       =   0.0000000000000000E+00
(PID.TID 0000.0001) %MON trcstat_ptracer39_max        =   5.5047364555535883E-02
(PID.TID 0000.0001) %MON trcstat_ptracer39_min        =   1.5252081037990809E-05
(PID.TID 0000.0001) %MON trcstat_ptracer39_mean       =   1.9128552557984200E-03
(PID.TID 0000.0001) %MON trcstat_ptracer39_sd         =   9.5067621692077851E-03
(PID.TID 0000.0001) %MON trcstat_ptracer39_del2       =   0.0000000000000000E+00
(PID.TID 0000.0001) %MON trcstat_ptracer40_max        =   5.6591980552104730E-02
(PID.TID 0000.0001) %MON trcstat_ptracer40_min        =   1.5252081188912063E-05
(PID.TID 0000.0001) %MON trcstat_ptracer40_mean       =   1.9396118921371911E-03
(PID.TID 0000.0001) %MON trcstat_ptracer40_sd         =   9.6547949110932733E-03
(PID.TID 0000.0001) %MON trcstat_ptracer40_del2       =   0.0000000000000000E+00
(PID.TID 0000.0001) %MON trcstat_ptracer41_max        =   5.6364700223096822E-02
(PID.TID 0000.0001) %MON trcstat_ptracer41_min        =   1.5252081399818376E-05
(PID.TID 0000.0001) %MON trcstat_ptracer41_mean       =   1.9365387054680252E-03
(PID.TID 0000.0001) %MON trcstat_ptracer41_sd         =   9.6366942064239607E-03
(PID.TID 0000.0001) %MON trcstat_ptracer41_del2       =   0.0000000000000000E+00
(PID.TID 0000.0001) %MON trcstat_ptracer42_max        =   5.6166799827827192E-02
(PID.TID 0000.0001) %MON trcstat_ptracer42_min        =   1.5252081694558432E-05
(PID.TID 0000.0001) %MON trcstat_ptracer42_mean       =   1.9337437561463271E-03
(PID.TID 0000.0001) %MON trcstat_ptracer42_sd         =   9.6198789907616516E-03
(PID.TID 0000.0001) %MON trcstat_ptracer42_del2       =   0.0000000000000000E+00
(PID.TID 0000.0001) %MON trcstat_ptracer43_max        =   5.5995759793145021E-02
(PID.TID 0000.0001) %MON trcstat_ptracer43_min        =   1.5252082106455699E-05
(PID.TID 0000.0001) %MON trcstat_ptracer43_mean       =   1.9312172681279890E-03
(PID.TID 0000.0001) %MON trcstat_ptracer43_sd         =   9.6041649708941620E-03
(PID.TID 0000.0001) %MON trcstat_ptracer43_del2       =   0.0000000000000000E+00
(PID.TID 0000.0001) %MON trcstat_ptracer44_max        =   5.5166837660504009E-02
(PID.TID 0000.0001) %MON trcstat_ptracer44_min        =   1.5283366968435121E-05
(PID.TID 0000.0001) %MON trcstat_ptracer44_mean       =   1.9170323280523259E-03
(PID.TID 0000.0001) %MON trcstat_ptracer44_sd         =   9.5290799525477275E-03
(PID.TID 0000.0001) %MON trcstat_ptracer44_del2       =   0.0000000000000000E+00
(PID.TID 0000.0001) %MON trcstat_ptracer45_max        =   5.5166830496181742E-02
(PID.TID 0000.0001) %MON trcstat_ptracer45_min        =   1.5283366968434978E-05
(PID.TID 0000.0001) %MON trcstat_ptracer45_mean       =   1.9170321142623790E-03
(PID.TID 0000.0001) %MON trcstat_ptracer45_sd         =   9.5290787953864510E-03
(PID.TID 0000.0001) %MON trcstat_ptracer45_del2       =   0.0000000000000000E+00
(PID.TID 0000.0001) %MON trcstat_ptracer46_max        =   5.5166824565629817E-02
(PID.TID 0000.0001) %MON trcstat_ptracer46_min        =   1.5283366968434856E-05
(PID.TID 0000.0001) %MON trcstat_ptracer46_mean       =   1.9170319372892710E-03
(PID.TID 0000.0001) %MON trcstat_ptracer46_sd         =   9.5290778375003125E-03
(PID.TID 0000.0001) %MON trcstat_ptracer46_del2       =   0.0000000000000000E+00
(PID.TID 0000.0001) %MON trcstat_ptracer47_max        =   5.5166819656380220E-02
(PID.TID 0000.0001) %MON trcstat_ptracer47_min        =   1.5283366968434758E-05
(PID.TID 0000.0001) %MON trcstat_ptracer47_mean       =   1.9170317907927603E-03
(PID.TID 0000.0001) %MON trcstat_ptracer47_sd         =   9.5290770445720721E-03
(PID.TID 0000.0001) %MON trcstat_ptracer47_del2       =   0.0000000000000000E+00
(PID.TID 0000.0001) %MON trcstat_ptracer48_max        =   5.5166819608766016E-02
(PID.TID 0000.0001) %MON trcstat_ptracer48_min        =   1.5283366968434758E-05
(PID.TID 0000.0001) %MON trcstat_ptracer48_mean       =   1.9170317894491029E-03
(PID.TID 0000.0001) %MON trcstat_ptracer48_sd         =   9.5290770371550988E-03
(PID.TID 0000.0001) %MON trcstat_ptracer48_del2       =   0.0000000000000000E+00
(PID.TID 0000.0001) %MON trcstat_ptracer49_max        =   5.5166864579828868E-02
(PID.TID 0000.0001) %MON trcstat_ptracer49_min        =   1.5283366968435720E-05
(PID.TID 0000.0001) %MON trcstat_ptracer49_mean       =   1.9170331338170640E-03
(PID.TID 0000.0001) %MON trcstat_ptracer49_sd         =   9.5290843092139619E-03
(PID.TID 0000.0001) %MON trcstat_ptracer49_del2       =   0.0000000000000000E+00
(PID.TID 0000.0001) %MON trcstat_ptracer50_max        =   5.5166852779720658E-02
(PID.TID 0000.0001) %MON trcstat_ptracer50_min        =   1.5283366968435473E-05
(PID.TID 0000.0001) %MON trcstat_ptracer50_mean       =   1.9170327812661027E-03
(PID.TID 0000.0001) %MON trcstat_ptracer50_sd         =   9.5290824017897052E-03
(PID.TID 0000.0001) %MON trcstat_ptracer50_del2       =   0.0000000000000000E+00
(PID.TID 0000.0001) %MON trcstat_ptracer51_max        =   5.5166843011713033E-02
(PID.TID 0000.0001) %MON trcstat_ptracer51_min        =   1.5283366968435270E-05
(PID.TID 0000.0001) %MON trcstat_ptracer51_mean       =   1.9170324894280601E-03
(PID.TID 0000.0001) %MON trcstat_ptracer51_sd         =   9.5290808228436358E-03
(PID.TID 0000.0001) %MON trcstat_ptracer51_del2       =   0.0000000000000000E+00
(PID.TID 0000.0001) %MON trcstat_ptracer52_max        =   5.5166834925857271E-02
(PID.TID 0000.0001) %MON trcstat_ptracer52_min        =   1.5283366968435097E-05
(PID.TID 0000.0001) %MON trcstat_ptracer52_mean       =   1.9170322478475439E-03
(PID.TID 0000.0001) %MON trcstat_ptracer52_sd         =   9.5290795158084057E-03
(PID.TID 0000.0001) %MON trcstat_ptracer52_del2       =   0.0000000000000000E+00
(PID.TID 0000.0001) %MON trcstat_ptracer53_max        =   5.5166825346775208E-02
(PID.TID 0000.0001) %MON trcstat_ptracer53_min        =   1.5283366968434897E-05
(PID.TID 0000.0001) %MON trcstat_ptracer53_mean       =   1.9170319615582666E-03
(PID.TID 0000.0001) %MON trcstat_ptracer53_sd         =   9.5290779670627393E-03
(PID.TID 0000.0001) %MON trcstat_ptracer53_del2       =   0.0000000000000000E+00
(PID.TID 0000.0001) %MON trcstat_ptracer54_max        =   5.5166802343495608E-02
(PID.TID 0000.0001) %MON trcstat_ptracer54_min        =   1.5283366968434409E-05
(PID.TID 0000.0001) %MON trcstat_ptracer54_mean       =   1.9170312741604064E-03
(PID.TID 0000.0001) %MON trcstat_ptracer54_sd         =   9.5290742482434798E-03
(PID.TID 0000.0001) %MON trcstat_ptracer54_del2       =   0.0000000000000000E+00
(PID.TID 0000.0001) %MON trcstat_ptracer55_max        =   5.5166801261127184E-02
(PID.TID 0000.0001) %MON trcstat_ptracer55_min        =   1.5283366968434389E-05
(PID.TID 0000.0001) %MON trcstat_ptracer55_mean       =   1.9170312418615397E-03
(PID.TID 0000.0001) %MON trcstat_ptracer55_sd         =   9.5290740734223656E-03
(PID.TID 0000.0001) %MON trcstat_ptracer55_del2       =   0.0000000000000000E+00
(PID.TID 0000.0001) %MON trcstat_ptracer56_max        =   5.5166800365153791E-02
(PID.TID 0000.0001) %MON trcstat_ptracer56_min        =   1.5283366968434372E-05
(PID.TID 0000.0001) %MON trcstat_ptracer56_mean       =   1.9170312151248717E-03
(PID.TID 0000.0001) %MON trcstat_ptracer56_sd         =   9.5290739287072577E-03
(PID.TID 0000.0001) %MON trcstat_ptracer56_del2       =   0.0000000000000000E+00
(PID.TID 0000.0001) %MON trcstat_ptracer57_max        =   5.5166799623476273E-02
(PID.TID 0000.0001) %MON trcstat_ptracer57_min        =   1.5283366968434355E-05
(PID.TID 0000.0001) %MON trcstat_ptracer57_mean       =   1.9170311929925352E-03
(PID.TID 0000.0001) %MON trcstat_ptracer57_sd         =   9.5290738089135827E-03
(PID.TID 0000.0001) %MON trcstat_ptracer57_del2       =   0.0000000000000000E+00
(PID.TID 0000.0001) %MON trcstat_ptracer58_max        =   1.0203660319045918E-02
(PID.TID 0000.0001) %MON trcstat_ptracer58_min        =   2.4581589511994766E-06
(PID.TID 0000.0001) %MON trcstat_ptracer58_mean       =   3.2689091907691671E-04
(PID.TID 0000.0001) %MON trcstat_ptracer58_sd         =   1.6198092899185183E-03
(PID.TID 0000.0001) %MON trcstat_ptracer58_del2       =   0.0000000000000000E+00
(PID.TID 0000.0001) %MON trcstat_ptracer59_max        =   9.0430963833338252E-03
(PID.TID 0000.0001) %MON trcstat_ptracer59_min        =   2.3017913715571650E-06
(PID.TID 0000.0001) %MON trcstat_ptracer59_mean       =   2.9786120407269934E-04
(PID.TID 0000.0001) %MON trcstat_ptracer59_sd         =   1.4768444304834644E-03
(PID.TID 0000.0001) %MON trcstat_ptracer59_del2       =   0.0000000000000000E+00
(PID.TID 0000.0001) %MON trcstat_ptracer60_max        =   8.3086685284059041E-03
(PID.TID 0000.0001) %MON trcstat_ptracer60_min        =   2.1967935633726627E-06
(PID.TID 0000.0001) %MON trcstat_ptracer60_mean       =   2.7944734624626110E-04
(PID.TID 0000.0001) %MON trcstat_ptracer60_sd         =   1.3865835973646380E-03
(PID.TID 0000.0001) %MON trcstat_ptracer60_del2       =   0.0000000000000000E+00
(PID.TID 0000.0001) %MON trcstat_ptracer61_max        =   7.8544417203958300E-03
(PID.TID 0000.0001) %MON trcstat_ptracer61_min        =   2.1269885564005823E-06
(PID.TID 0000.0001) %MON trcstat_ptracer61_mean       =   2.6803120939361904E-04
(PID.TID 0000.0001) %MON trcstat_ptracer61_sd         =   1.3308085946872651E-03
(PID.TID 0000.0001) %MON trcstat_ptracer61_del2       =   0.0000000000000000E+00
(PID.TID 0000.0001) %MON trcstat_ptracer62_max        =   1.8349069705859203E-03
(PID.TID 0000.0001) %MON trcstat_ptracer62_min        =   5.0840269098485822E-07
(PID.TID 0000.0001) %MON trcstat_ptracer62_mean       =   6.3761687561662513E-05
(PID.TID 0000.0001) %MON trcstat_ptracer62_sd         =   3.1692999637258765E-04
(PID.TID 0000.0001) %MON trcstat_ptracer62_del2       =   0.0000000000000000E+00
(PID.TID 0000.0001) %MON trcstat_ptracer63_max        =   7.5813802067472369E-03
(PID.TID 0000.0001) %MON trcstat_ptracer63_min        =   2.0811855806813400E-06
(PID.TID 0000.0001) %MON trcstat_ptracer63_mean       =   2.6115143539738567E-04
(PID.TID 0000.0001) %MON trcstat_ptracer63_sd         =   1.2972895242481222E-03
(PID.TID 0000.0001) %MON trcstat_ptracer63_del2       =   0.0000000000000000E+00
(PID.TID 0000.0001) %MON trcstat_ptracer64_max        =   7.4229958127838332E-03
(PID.TID 0000.0001) %MON trcstat_ptracer64_min        =   2.0517932826494591E-06
(PID.TID 0000.0001) %MON trcstat_ptracer64_mean       =   2.5715338886103889E-04
(PID.TID 0000.0001) %MON trcstat_ptracer64_sd         =   1.2778726690295477E-03
(PID.TID 0000.0001) %MON trcstat_ptracer64_del2       =   0.0000000000000000E+00
(PID.TID 0000.0001) %MON trcstat_ptracer65_max        =   1.8348983778647947E-03
(PID.TID 0000.0001) %MON trcstat_ptracer65_min        =   5.0840269192843810E-07
(PID.TID 0000.0001) %MON trcstat_ptracer65_mean       =   6.3761430300706513E-05
(PID.TID 0000.0001) %MON trcstat_ptracer65_sd         =   3.1692504067763034E-04
(PID.TID 0000.0001) %MON trcstat_ptracer65_del2       =   0.0000000000000000E+00
(PID.TID 0000.0001) %MON trcstat_ptracer66_max        =   7.4229958127838332E-03
(PID.TID 0000.0001) %MON trcstat_ptracer66_min        =   2.0517932826494591E-06
(PID.TID 0000.0001) %MON trcstat_ptracer66_mean       =   2.5715338886103889E-04
(PID.TID 0000.0001) %MON trcstat_ptracer66_sd         =   1.2778726690295477E-03
(PID.TID 0000.0001) %MON trcstat_ptracer66_del2       =   0.0000000000000000E+00
(PID.TID 0000.0001) %MON trcstat_ptracer67_max        =   7.3396107251237613E-03
(PID.TID 0000.0001) %MON trcstat_ptracer67_min        =   2.0336107729897758E-06
(PID.TID 0000.0001) %MON trcstat_ptracer67_mean       =   2.5504623549319584E-04
(PID.TID 0000.0001) %MON trcstat_ptracer67_sd         =   1.2676830270105101E-03
(PID.TID 0000.0001) %MON trcstat_ptracer67_del2       =   0.0000000000000000E+00
(PID.TID 0000.0001) %MON trcstat_ptracer68_max        =   1.8349026812809403E-03
(PID.TID 0000.0001) %MON trcstat_ptracer68_min        =   5.0840269324744479E-07
(PID.TID 0000.0001) %MON trcstat_ptracer68_mean       =   6.3761558873298959E-05
(PID.TID 0000.0001) %MON trcstat_ptracer68_sd         =   3.1692075675262752E-04
(PID.TID 0000.0001) %MON trcstat_ptracer68_del2       =   0.0000000000000000E+00
(PID.TID 0000.0001) %MON trcstat_ptracer69_max        =   7.3396107251237613E-03
(PID.TID 0000.0001) %MON trcstat_ptracer69_min        =   2.0336107729897758E-06
(PID.TID 0000.0001) %MON trcstat_ptracer69_mean       =   2.5504623549319584E-04
(PID.TID 0000.0001) %MON trcstat_ptracer69_sd         =   1.2676830270105101E-03
(PID.TID 0000.0001) %MON trcstat_ptracer69_del2       =   0.0000000000000000E+00
(PID.TID 0000.0001) %MON trcstat_ptracer70_max        =   7.3396249744367842E-03
(PID.TID 0000.0001) %MON trcstat_ptracer70_min        =   2.0336107803627868E-06
(PID.TID 0000.0001) %MON trcstat_ptracer70_mean       =   2.5504666121744862E-04
(PID.TID 0000.0001) %MON trcstat_ptracer70_sd         =   1.2676575131765919E-03
(PID.TID 0000.0001) %MON trcstat_ptracer70_del2       =   0.0000000000000000E+00
(PID.TID 0000.0001) %MON trcstat_ptracer71_max        =   1.8349062436091960E-03
(PID.TID 0000.0001) %MON trcstat_ptracer71_min        =   5.0840269509069754E-07
(PID.TID 0000.0001) %MON trcstat_ptracer71_mean       =   6.3761665304362154E-05
(PID.TID 0000.0001) %MON trcstat_ptracer71_sd         =   3.1691437829414797E-04
(PID.TID 0000.0001) %MON trcstat_ptracer71_del2       =   0.0000000000000000E+00
(PID.TID 0000.0001) %MON trcstat_ptracer72_max        =   7.3396249744367842E-03
(PID.TID 0000.0001) %MON trcstat_ptracer72_min        =   2.0336107803627868E-06
(PID.TID 0000.0001) %MON trcstat_ptracer72_mean       =   2.5504666121744862E-04
(PID.TID 0000.0001) %MON trcstat_ptracer72_sd         =   1.2676575131765919E-03
(PID.TID 0000.0001) %MON trcstat_ptracer72_del2       =   0.0000000000000000E+00
(PID.TID 0000.0001) %MON trcstat_ptracer73_max        =   7.3396367698979276E-03
(PID.TID 0000.0001) %MON trcstat_ptracer73_min        =   2.0336107906663564E-06
(PID.TID 0000.0001) %MON trcstat_ptracer73_mean       =   2.5504701362758539E-04
(PID.TID 0000.0001) %MON trcstat_ptracer73_sd         =   1.2676205814742625E-03
(PID.TID 0000.0001) %MON trcstat_ptracer73_del2       =   0.0000000000000000E+00
(PID.TID 0000.0001) %MON trcstat_ptracer74_max        =   1.8349091924744819E-03
(PID.TID 0000.0001) %MON trcstat_ptracer74_min        =   5.0840269766658996E-07
(PID.TID 0000.0001) %MON trcstat_ptracer74_mean       =   6.3761753406896360E-05
(PID.TID 0000.0001) %MON trcstat_ptracer74_sd         =   3.1690514536856563E-04
(PID.TID 0000.0001) %MON trcstat_ptracer74_del2       =   0.0000000000000000E+00
(PID.TID 0000.0001) %MON trcstat_ptracer75_max        =   7.3396367698979276E-03
(PID.TID 0000.0001) %MON trcstat_ptracer75_min        =   2.0336107906663564E-06
(PID.TID 0000.0001) %MON trcstat_ptracer75_mean       =   2.5504701362758539E-04
(PID.TID 0000.0001) %MON trcstat_ptracer75_sd         =   1.2676205814742625E-03
(PID.TID 0000.0001) %MON trcstat_ptracer75_del2       =   0.0000000000000000E+00
(PID.TID 0000.0001) %MON trcstat_ptracer76_max        =   7.3396486074047843E-03
(PID.TID 0000.0001) %MON trcstat_ptracer76_min        =   2.0336108050654405E-06
(PID.TID 0000.0001) %MON trcstat_ptracer76_mean       =   2.5504736743978937E-04
(PID.TID 0000.0001) %MON trcstat_ptracer76_sd         =   1.2675682892277047E-03
(PID.TID 0000.0001) %MON trcstat_ptracer76_del2       =   0.0000000000000000E+00
(PID.TID 0000.0001) %MON trcstat_ptracer77_max        =   7.3396486074047843E-03
(PID.TID 0000.0001) %MON trcstat_ptracer77_min        =   2.0336108050654405E-06
(PID.TID 0000.0001) %MON trcstat_ptracer77_mean       =   2.5504736743978937E-04
(PID.TID 0000.0001) %MON trcstat_ptracer77_sd         =   1.2675682892277047E-03
(PID.TID 0000.0001) %MON trcstat_ptracer77_del2       =   0.0000000000000000E+00
(PID.TID 0000.0001) %MON trcstat_ptracer78_max        =   7.3396742148103466E-03
(PID.TID 0000.0001) %MON trcstat_ptracer78_min        =   2.0336108251882748E-06
(PID.TID 0000.0001) %MON trcstat_ptracer78_mean       =   2.5504813305313905E-04
(PID.TID 0000.0001) %MON trcstat_ptracer78_sd         =   1.2674968143445554E-03
(PID.TID 0000.0001) %MON trcstat_ptracer78_del2       =   0.0000000000000000E+00
(PID.TID 0000.0001) %MON trcstat_ptracer79_max        =   7.3396775307349527E-03
(PID.TID 0000.0001) %MON trcstat_ptracer79_min        =   2.0336108533091164E-06
(PID.TID 0000.0001) %MON trcstat_ptracer79_mean       =   2.5504823199795873E-04
(PID.TID 0000.0001) %MON trcstat_ptracer79_sd         =   1.2673919451921514E-03
(PID.TID 0000.0001) %MON trcstat_ptracer79_del2       =   0.0000000000000000E+00
(PID.TID 0000.0001) %MON trcstat_ptracer80_max        =   7.3396802757263856E-03
(PID.TID 0000.0001) %MON trcstat_ptracer80_min        =   2.0336108926077902E-06
(PID.TID 0000.0001) %MON trcstat_ptracer80_mean       =   2.5504831390345793E-04
(PID.TID 0000.0001) %MON trcstat_ptracer80_sd         =   1.2672456093527015E-03
(PID.TID 0000.0001) %MON trcstat_ptracer80_del2       =   0.0000000000000000E+00
(PID.TID 0000.0001) %MON trcstat_ptracer81_max        =   7.3396825481463045E-03
(PID.TID 0000.0001) %MON trcstat_ptracer81_min        =   2.0336109475274261E-06
(PID.TID 0000.0001) %MON trcstat_ptracer81_mean       =   2.5504838170398376E-04
(PID.TID 0000.0001) %MON trcstat_ptracer81_sd         =   1.2670418756729853E-03
(PID.TID 0000.0001) %MON trcstat_ptracer81_del2       =   0.0000000000000000E+00
(PID.TID 0000.0001) %MON trcstat_ptracer82_max        =   7.3556128589209128E-03
(PID.TID 0000.0001) %MON trcstat_ptracer82_min        =   2.0377822624587103E-06
(PID.TID 0000.0001) %MON trcstat_ptracer82_mean       =   2.5560534004356129E-04
(PID.TID 0000.0001) %MON trcstat_ptracer82_sd         =   1.2705495666934124E-03
(PID.TID 0000.0001) %MON trcstat_ptracer82_del2       =   0.0000000000000000E+00
(PID.TID 0000.0001) %MON trcstat_ptracer83_max        =   7.3555988759437486E-03
(PID.TID 0000.0001) %MON trcstat_ptracer83_min        =   2.0377822624584287E-06
(PID.TID 0000.0001) %MON trcstat_ptracer83_mean       =   2.5560492277869914E-04
(PID.TID 0000.0001) %MON trcstat_ptracer83_sd         =   1.2705473082016460E-03
(PID.TID 0000.0001) %MON trcstat_ptracer83_del2       =   0.0000000000000000E+00
(PID.TID 0000.0001) %MON trcstat_ptracer84_max        =   7.3555878557077670E-03
(PID.TID 0000.0001) %MON trcstat_ptracer84_min        =   2.0377822624582067E-06
(PID.TID 0000.0001) %MON trcstat_ptracer84_mean       =   2.5560459392475111E-04
(PID.TID 0000.0001) %MON trcstat_ptracer84_sd         =   1.2705455282437908E-03
(PID.TID 0000.0001) %MON trcstat_ptracer84_del2       =   0.0000000000000000E+00
(PID.TID 0000.0001) %MON trcstat_ptracer85_max        =   7.3555792018755606E-03
(PID.TID 0000.0001) %MON trcstat_ptracer85_min        =   2.0377822624580327E-06
(PID.TID 0000.0001) %MON trcstat_ptracer85_mean       =   2.5560433568646174E-04
(PID.TID 0000.0001) %MON trcstat_ptracer85_sd         =   1.2705441305009854E-03
(PID.TID 0000.0001) %MON trcstat_ptracer85_del2       =   0.0000000000000000E+00
(PID.TID 0000.0001) %MON trcstat_ptracer86_max        =   7.3555728077789222E-03
(PID.TID 0000.0001) %MON trcstat_ptracer86_min        =   2.0377822624579039E-06
(PID.TID 0000.0001) %MON trcstat_ptracer86_mean       =   2.5560414488075430E-04
(PID.TID 0000.0001) %MON trcstat_ptracer86_sd         =   1.2705430977444114E-03
(PID.TID 0000.0001) %MON trcstat_ptracer86_del2       =   0.0000000000000000E+00
(PID.TID 0000.0001) %MON trcstat_ptracer87_max        =   7.3555728077789222E-03
(PID.TID 0000.0001) %MON trcstat_ptracer87_min        =   2.0377822624579039E-06
(PID.TID 0000.0001) %MON trcstat_ptracer87_mean       =   2.5560414488075430E-04
(PID.TID 0000.0001) %MON trcstat_ptracer87_sd         =   1.2705430977444114E-03
(PID.TID 0000.0001) %MON trcstat_ptracer87_del2       =   0.0000000000000000E+00
(PID.TID 0000.0001) %MON trcstat_ptracer88_max        =   7.3555728077789222E-03
(PID.TID 0000.0001) %MON trcstat_ptracer88_min        =   2.0377822624579039E-06
(PID.TID 0000.0001) %MON trcstat_ptracer88_mean       =   2.5560414488075430E-04
(PID.TID 0000.0001) %MON trcstat_ptracer88_sd         =   1.2705430977444114E-03
(PID.TID 0000.0001) %MON trcstat_ptracer88_del2       =   0.0000000000000000E+00
(PID.TID 0000.0001) %MON trcstat_ptracer89_max        =   7.3555728077789222E-03
(PID.TID 0000.0001) %MON trcstat_ptracer89_min        =   2.0377822624579039E-06
(PID.TID 0000.0001) %MON trcstat_ptracer89_mean       =   2.5560414488075430E-04
(PID.TID 0000.0001) %MON trcstat_ptracer89_sd         =   1.2705430977444114E-03
(PID.TID 0000.0001) %MON trcstat_ptracer89_del2       =   0.0000000000000000E+00
(PID.TID 0000.0001) %MON trcstat_ptracer90_max        =   7.3555728077789222E-03
(PID.TID 0000.0001) %MON trcstat_ptracer90_min        =   2.0377822624579039E-06
(PID.TID 0000.0001) %MON trcstat_ptracer90_mean       =   2.5560414488075430E-04
(PID.TID 0000.0001) %MON trcstat_ptracer90_sd         =   1.2705430977444114E-03
(PID.TID 0000.0001) %MON trcstat_ptracer90_del2       =   0.0000000000000000E+00
(PID.TID 0000.0001) %MON trcstat_ptracer91_max        =   7.3555728077789222E-03
(PID.TID 0000.0001) %MON trcstat_ptracer91_min        =   2.0377822624579039E-06
(PID.TID 0000.0001) %MON trcstat_ptracer91_mean       =   2.5560414488075430E-04
(PID.TID 0000.0001) %MON trcstat_ptracer91_sd         =   1.2705430977444114E-03
(PID.TID 0000.0001) %MON trcstat_ptracer91_del2       =   0.0000000000000000E+00
(PID.TID 0000.0001) %MON trcstat_ptracer92_max        =   7.3555728077789222E-03
(PID.TID 0000.0001) %MON trcstat_ptracer92_min        =   2.0377822624579039E-06
(PID.TID 0000.0001) %MON trcstat_ptracer92_mean       =   2.5560414488075430E-04
(PID.TID 0000.0001) %MON trcstat_ptracer92_sd         =   1.2705430977444114E-03
(PID.TID 0000.0001) %MON trcstat_ptracer92_del2       =   0.0000000000000000E+00
(PID.TID 0000.0001) %MON trcstat_ptracer93_max        =   7.3555728077789222E-03
(PID.TID 0000.0001) %MON trcstat_ptracer93_min        =   2.0377822624579039E-06
(PID.TID 0000.0001) %MON trcstat_ptracer93_mean       =   2.5560414488075430E-04
(PID.TID 0000.0001) %MON trcstat_ptracer93_sd         =   1.2705430977444114E-03
(PID.TID 0000.0001) %MON trcstat_ptracer93_del2       =   0.0000000000000000E+00
(PID.TID 0000.0001) %MON trcstat_ptracer94_max        =   7.3555728077789222E-03
(PID.TID 0000.0001) %MON trcstat_ptracer94_min        =   2.0377822624579039E-06
(PID.TID 0000.0001) %MON trcstat_ptracer94_mean       =   2.5560414488075430E-04
(PID.TID 0000.0001) %MON trcstat_ptracer94_sd         =   1.2705430977444114E-03
(PID.TID 0000.0001) %MON trcstat_ptracer94_del2       =   0.0000000000000000E+00
(PID.TID 0000.0001) %MON trcstat_ptracer95_max        =   7.3555728077789222E-03
(PID.TID 0000.0001) %MON trcstat_ptracer95_min        =   2.0377822624579039E-06
(PID.TID 0000.0001) %MON trcstat_ptracer95_mean       =   2.5560414488075430E-04
(PID.TID 0000.0001) %MON trcstat_ptracer95_sd         =   1.2705430977444114E-03
(PID.TID 0000.0001) %MON trcstat_ptracer95_del2       =   0.0000000000000000E+00
(PID.TID 0000.0001) %MON trcstat_ptracer96_max        =   5.2439854003941513E-04
(PID.TID 0000.0001) %MON trcstat_ptracer96_min        =   1.4531600137862500E-07
(PID.TID 0000.0001) %MON trcstat_ptracer96_mean       =   1.8222541874112712E-05
(PID.TID 0000.0001) %MON trcstat_ptracer96_sd         =   9.0576936893732837E-05
(PID.TID 0000.0001) %MON trcstat_ptracer96_del2       =   0.0000000000000000E+00
(PID.TID 0000.0001) %MON trcstat_ptracer97_max        =   5.0625874112503579E-04
(PID.TID 0000.0001) %MON trcstat_ptracer97_min        =   1.4029088620175796E-07
(PID.TID 0000.0001) %MON trcstat_ptracer97_mean       =   1.7592186237047187E-05
(PID.TID 0000.0001) %MON trcstat_ptracer97_sd         =   8.7443368539863255E-05
(PID.TID 0000.0001) %MON trcstat_ptracer97_del2       =   0.0000000000000000E+00
(PID.TID 0000.0001) %MON trcstat_ptracer98_max        =   4.9307471030808137E-04
(PID.TID 0000.0001) %MON trcstat_ptracer98_min        =   1.3663873401121106E-07
(PID.TID 0000.0001) %MON trcstat_ptracer98_mean       =   1.7134042121119061E-05
(PID.TID 0000.0001) %MON trcstat_ptracer98_sd         =   8.5165733351915329E-05
(PID.TID 0000.0001) %MON trcstat_ptracer98_del2       =   0.0000000000000000E+00
(PID.TID 0000.0001) %MON trcstat_ptracer99_max        =   4.8349387253022140E-04
(PID.TID 0000.0001) %MON trcstat_ptracer99_min        =   1.3398489417511925E-07
(PID.TID 0000.0001) %MON trcstat_ptracer99_mean       =   1.6801108012760791E-05
(PID.TID 0000.0001) %MON trcstat_ptracer99_sd         =   8.3510361646642759E-05
(PID.TID 0000.0001) %MON trcstat_ptracer99_del2       =   0.0000000000000000E+00
(PID.TID 0000.0001) %MON trcstat_ptracer0a_max        =   4.7653288556700370E-05
(PID.TID 0000.0001) %MON trcstat_ptracer0a_min        =   1.3205711833059891E-08
(PID.TID 0000.0001) %MON trcstat_ptracer0a_mean       =   1.6559214826868708E-06
(PID.TID 0000.0001) %MON trcstat_ptracer0a_sd         =   8.2307351788189650E-06
(PID.TID 0000.0001) %MON trcstat_ptracer0a_del2       =   0.0000000000000000E+00
(PID.TID 0000.0001) %MON trcstat_ptracer0b_max        =   4.7653288556700362E-04
(PID.TID 0000.0001) %MON trcstat_ptracer0b_min        =   1.3205711833059869E-07
(PID.TID 0000.0001) %MON trcstat_ptracer0b_mean       =   1.6559214826868709E-05
(PID.TID 0000.0001) %MON trcstat_ptracer0b_sd         =   8.2307351788189653E-05
(PID.TID 0000.0001) %MON trcstat_ptracer0b_del2       =   0.0000000000000000E+00
(PID.TID 0000.0001) %MON trcstat_ptracer0c_max        =   4.7147540984501465E-04
(PID.TID 0000.0001) %MON trcstat_ptracer0c_min        =   1.3065683033830358E-07
(PID.TID 0000.0001) %MON trcstat_ptracer0c_mean       =   1.6383479950232127E-05
(PID.TID 0000.0001) %MON trcstat_ptracer0c_sd         =   8.1432920609960771E-05
(PID.TID 0000.0001) %MON trcstat_ptracer0c_del2       =   0.0000000000000000E+00
(PID.TID 0000.0001) %MON trcstat_ptracer0d_max        =   4.7147540984501466E-05
(PID.TID 0000.0001) %MON trcstat_ptracer0d_min        =   1.3065683033830381E-08
(PID.TID 0000.0001) %MON trcstat_ptracer0d_mean       =   1.6383479950232131E-06
(PID.TID 0000.0001) %MON trcstat_ptracer0d_sd         =   8.1432920609960760E-06
(PID.TID 0000.0001) %MON trcstat_ptracer0d_del2       =   0.0000000000000000E+00
(PID.TID 0000.0001) %MON trcstat_ptracer0e_max        =   4.7147540984501465E-04
(PID.TID 0000.0001) %MON trcstat_ptracer0e_min        =   1.3065683033830358E-07
(PID.TID 0000.0001) %MON trcstat_ptracer0e_mean       =   1.6383479950232127E-05
(PID.TID 0000.0001) %MON trcstat_ptracer0e_sd         =   8.1432920609960771E-05
(PID.TID 0000.0001) %MON trcstat_ptracer0e_del2       =   0.0000000000000000E+00
(PID.TID 0000.0001) %MON trcstat_ptracer0f_max        =   4.6780833251635441E-04
(PID.TID 0000.0001) %MON trcstat_ptracer0f_min        =   1.2963981904129462E-07
(PID.TID 0000.0001) %MON trcstat_ptracer0f_mean       =   1.6256044943427636E-05
(PID.TID 0000.0001) %MON trcstat_ptracer0f_sd         =   8.0798274749743391E-05
(PID.TID 0000.0001) %MON trcstat_ptracer0f_del2       =   0.0000000000000000E+00
(PID.TID 0000.0001) %MON trcstat_ptracer0g_max        =   4.6780833251635445E-05
(PID.TID 0000.0001) %MON trcstat_ptracer0g_min        =   1.2963981904129484E-08
(PID.TID 0000.0001) %MON trcstat_ptracer0g_mean       =   1.6256044943427641E-06
(PID.TID 0000.0001) %MON trcstat_ptracer0g_sd         =   8.0798274749743391E-06
(PID.TID 0000.0001) %MON trcstat_ptracer0g_del2       =   0.0000000000000000E+00
(PID.TID 0000.0001) %MON trcstat_ptracer0h_max        =   4.6780833251635441E-04
(PID.TID 0000.0001) %MON trcstat_ptracer0h_min        =   1.2963981904129462E-07
(PID.TID 0000.0001) %MON trcstat_ptracer0h_mean       =   1.6256044943427636E-05
(PID.TID 0000.0001) %MON trcstat_ptracer0h_sd         =   8.0798274749743391E-05
(PID.TID 0000.0001) %MON trcstat_ptracer0h_del2       =   0.0000000000000000E+00
(PID.TID 0000.0001) %MON trcstat_ptracer0i_max        =   4.6515139863002294E-04
(PID.TID 0000.0001) %MON trcstat_ptracer0i_min        =   1.2890241896141017E-07
(PID.TID 0000.0001) %MON trcstat_ptracer0i_mean       =   1.6163712551678839E-05
(PID.TID 0000.0001) %MON trcstat_ptracer0i_sd         =   8.0337630800866416E-05
(PID.TID 0000.0001) %MON trcstat_ptracer0i_del2       =   0.0000000000000000E+00
(PID.TID 0000.0001) %MON trcstat_ptracer0j_max        =   4.6515139863002301E-05
(PID.TID 0000.0001) %MON trcstat_ptracer0j_min        =   1.2890241896141038E-08
(PID.TID 0000.0001) %MON trcstat_ptracer0j_mean       =   1.6163712551678840E-06
(PID.TID 0000.0001) %MON trcstat_ptracer0j_sd         =   8.0337630800866430E-06
(PID.TID 0000.0001) %MON trcstat_ptracer0j_del2       =   0.0000000000000000E+00
(PID.TID 0000.0001) %MON trcstat_ptracer0k_max        =   4.6515139863002294E-04
(PID.TID 0000.0001) %MON trcstat_ptracer0k_min        =   1.2890241896141017E-07
(PID.TID 0000.0001) %MON trcstat_ptracer0k_mean       =   1.6163712551678839E-05
(PID.TID 0000.0001) %MON trcstat_ptracer0k_sd         =   8.0337630800866416E-05
(PID.TID 0000.0001) %MON trcstat_ptracer0k_del2       =   0.0000000000000000E+00
(PID.TID 0000.0001) %MON trcstat_ptracer0l_max        =   4.6323103716698849E-04
(PID.TID 0000.0001) %MON trcstat_ptracer0l_min        =   1.2836879959890480E-07
(PID.TID 0000.0001) %MON trcstat_ptracer0l_mean       =   1.6096976082590296E-05
(PID.TID 0000.0001) %MON trcstat_ptracer0l_sd         =   8.0003540015807502E-05
(PID.TID 0000.0001) %MON trcstat_ptracer0l_del2       =   0.0000000000000000E+00
(PID.TID 0000.0001) %MON trcstat_ptracer0m_max        =   4.6323103716698855E-05
(PID.TID 0000.0001) %MON trcstat_ptracer0m_min        =   1.2836879959890503E-08
(PID.TID 0000.0001) %MON trcstat_ptracer0m_mean       =   1.6096976082590293E-06
(PID.TID 0000.0001) %MON trcstat_ptracer0m_sd         =   8.0003540015807512E-06
(PID.TID 0000.0001) %MON trcstat_ptracer0m_del2       =   0.0000000000000000E+00
(PID.TID 0000.0001) %MON trcstat_ptracer0n_max        =   4.6323103716698849E-04
(PID.TID 0000.0001) %MON trcstat_ptracer0n_min        =   1.2836879959890480E-07
(PID.TID 0000.0001) %MON trcstat_ptracer0n_mean       =   1.6096976082590296E-05
(PID.TID 0000.0001) %MON trcstat_ptracer0n_sd         =   8.0003540015807502E-05
(PID.TID 0000.0001) %MON trcstat_ptracer0n_del2       =   0.0000000000000000E+00
(PID.TID 0000.0001) %MON trcstat_ptracer0o_max        =   4.6184874531987190E-04
(PID.TID 0000.0001) %MON trcstat_ptracer0o_min        =   1.2798390734307600E-07
(PID.TID 0000.0001) %MON trcstat_ptracer0o_mean       =   1.6048936818479175E-05
(PID.TID 0000.0001) %MON trcstat_ptracer0o_sd         =   7.9761441764301610E-05
(PID.TID 0000.0001) %MON trcstat_ptracer0o_del2       =   0.0000000000000000E+00
(PID.TID 0000.0001) %MON trcstat_ptracer0p_max        =   4.6184874531987190E-04
(PID.TID 0000.0001) %MON trcstat_ptracer0p_min        =   1.2798390734307600E-07
(PID.TID 0000.0001) %MON trcstat_ptracer0p_mean       =   1.6048936818479175E-05
(PID.TID 0000.0001) %MON trcstat_ptracer0p_sd         =   7.9761441764301610E-05
(PID.TID 0000.0001) %MON trcstat_ptracer0p_del2       =   0.0000000000000000E+00
(PID.TID 0000.0001) %MON trcstat_ptracer0q_max        =   4.6086098060556415E-04
(PID.TID 0000.0001) %MON trcstat_ptracer0q_min        =   1.2770775066115523E-07
(PID.TID 0000.0001) %MON trcstat_ptracer0q_mean       =   1.6014602473818321E-05
(PID.TID 0000.0001) %MON trcstat_ptracer0q_sd         =   7.9586153857287066E-05
(PID.TID 0000.0001) %MON trcstat_ptracer0q_del2       =   0.0000000000000000E+00
(PID.TID 0000.0001) %MON trcstat_ptracer0r_max        =   4.6016018653288477E-04
(PID.TID 0000.0001) %MON trcstat_ptracer0r_min        =   1.2751121561574451E-07
(PID.TID 0000.0001) %MON trcstat_ptracer0r_mean       =   1.5990246369802229E-05
(PID.TID 0000.0001) %MON trcstat_ptracer0r_sd         =   7.9458596484885936E-05
(PID.TID 0000.0001) %MON trcstat_ptracer0r_del2       =   0.0000000000000000E+00
(PID.TID 0000.0001) %MON trcstat_ptracer0s_max        =   4.5967041668206485E-04
(PID.TID 0000.0001) %MON trcstat_ptracer0s_min        =   1.2737299847340696E-07
(PID.TID 0000.0001) %MON trcstat_ptracer0s_mean       =   1.5973222847433619E-05
(PID.TID 0000.0001) %MON trcstat_ptracer0s_sd         =   7.9364907973439525E-05
(PID.TID 0000.0001) %MON trcstat_ptracer0s_del2       =   0.0000000000000000E+00
(PID.TID 0000.0001) %MON trcstat_ptracer0t_max        =   4.5933434071958323E-04
(PID.TID 0000.0001) %MON trcstat_ptracer0t_min        =   1.2727737130793735E-07
(PID.TID 0000.0001) %MON trcstat_ptracer0t_mean       =   1.5961539800511390E-05
(PID.TID 0000.0001) %MON trcstat_ptracer0t_sd         =   7.9294183196243132E-05
(PID.TID 0000.0001) %MON trcstat_ptracer0t_del2       =   0.0000000000000000E+00
(PID.TID 0000.0001) %MON trcstat_ptracer0u_max        =   4.5972413020410038E-04
(PID.TID 0000.0001) %MON trcstat_ptracer0u_min        =   1.2736139140363570E-07
(PID.TID 0000.0001) %MON trcstat_ptracer0u_mean       =   1.5975283814590718E-05
(PID.TID 0000.0001) %MON trcstat_ptracer0u_sd         =   7.9409077622742311E-05
(PID.TID 0000.0001) %MON trcstat_ptracer0u_del2       =   0.0000000000000000E+00
(PID.TID 0000.0001) %MON trcstat_ptracer0v_max        =   4.5972398731809993E-04
(PID.TID 0000.0001) %MON trcstat_ptracer0v_min        =   1.2736139140363284E-07
(PID.TID 0000.0001) %MON trcstat_ptracer0v_mean       =   1.5975279550741431E-05
(PID.TID 0000.0001) %MON trcstat_ptracer0v_sd         =   7.9409054544194409E-05
(PID.TID 0000.0001) %MON trcstat_ptracer0v_del2       =   0.0000000000000000E+00
(PID.TID 0000.0001) %MON trcstat_ptracer0w_max        =   4.5972386903854549E-04
(PID.TID 0000.0001) %MON trcstat_ptracer0w_min        =   1.2736139140363046E-07
(PID.TID 0000.0001) %MON trcstat_ptracer0w_mean       =   1.5975276021171054E-05
(PID.TID 0000.0001) %MON trcstat_ptracer0w_sd         =   7.9409035440011262E-05
(PID.TID 0000.0001) %MON trcstat_ptracer0w_del2       =   0.0000000000000000E+00
(PID.TID 0000.0001) %MON trcstat_ptracer0x_max        =   4.5972377112795271E-04
(PID.TID 0000.0001) %MON trcstat_ptracer0x_min        =   1.2736139140362847E-07
(PID.TID 0000.0001) %MON trcstat_ptracer0x_mean       =   1.5975273099429171E-05
(PID.TID 0000.0001) %MON trcstat_ptracer0x_sd         =   7.9409019625766071E-05
(PID.TID 0000.0001) %MON trcstat_ptracer0x_del2       =   0.0000000000000000E+00
(PID.TID 0000.0001) %MON trcstat_ptracer0y_max        =   4.5972377017832990E-04
(PID.TID 0000.0001) %MON trcstat_ptracer0y_min        =   1.2736139140362850E-07
(PID.TID 0000.0001) %MON trcstat_ptracer0y_mean       =   1.5975273072631122E-05
(PID.TID 0000.0001) %MON trcstat_ptracer0y_sd         =   7.9409019477841186E-05
(PID.TID 0000.0001) %MON trcstat_ptracer0y_del2       =   0.0000000000000000E+00
(PID.TID 0000.0001) %MON trcstat_ptracer0z_max        =   4.5972466708596048E-04
(PID.TID 0000.0001) %MON trcstat_ptracer0z_min        =   1.2736139140364766E-07
(PID.TID 0000.0001) %MON trcstat_ptracer0z_mean       =   1.5975299884847828E-05
(PID.TID 0000.0001) %MON trcstat_ptracer0z_sd         =   7.9409164512560284E-05
(PID.TID 0000.0001) %MON trcstat_ptracer0z_del2       =   0.0000000000000000E+00
(PID.TID 0000.0001) %MON trcstat_ptracer0A_max        =   4.5972443174335516E-04
(PID.TID 0000.0001) %MON trcstat_ptracer0A_min        =   1.2736139140364271E-07
(PID.TID 0000.0001) %MON trcstat_ptracer0A_mean       =   1.5975292853534180E-05
(PID.TID 0000.0001) %MON trcstat_ptracer0A_sd         =   7.9409126470686257E-05
(PID.TID 0000.0001) %MON trcstat_ptracer0A_del2       =   0.0000000000000000E+00
(PID.TID 0000.0001) %MON trcstat_ptracer0B_max        =   4.5972423692917870E-04
(PID.TID 0000.0001) %MON trcstat_ptracer0B_min        =   1.2736139140363864E-07
(PID.TID 0000.0001) %MON trcstat_ptracer0B_mean       =   1.5975287033085406E-05
(PID.TID 0000.0001) %MON trcstat_ptracer0B_sd         =   7.9409094980016837E-05
(PID.TID 0000.0001) %MON trcstat_ptracer0B_del2       =   0.0000000000000000E+00
(PID.TID 0000.0001) %MON trcstat_ptracer0C_max        =   4.5972407566401683E-04
(PID.TID 0000.0001) %MON trcstat_ptracer0C_min        =   1.2736139140363525E-07
(PID.TID 0000.0001) %MON trcstat_ptracer0C_mean       =   1.5975282214978070E-05
(PID.TID 0000.0001) %MON trcstat_ptracer0C_sd         =   7.9409068912366669E-05
(PID.TID 0000.0001) %MON trcstat_ptracer0C_del2       =   0.0000000000000000E+00
(PID.TID 0000.0001) %MON trcstat_ptracer0D_max        =   4.5972388461779177E-04
(PID.TID 0000.0001) %MON trcstat_ptracer0D_min        =   1.2736139140363120E-07
(PID.TID 0000.0001) %MON trcstat_ptracer0D_mean       =   1.5975276505194475E-05
(PID.TID 0000.0001) %MON trcstat_ptracer0D_sd         =   7.9409038024018055E-05
(PID.TID 0000.0001) %MON trcstat_ptracer0D_del2       =   0.0000000000000000E+00
(PID.TID 0000.0001) %MON trcstat_ptracer0E_max        =   4.5972342583795208E-04
(PID.TID 0000.0001) %MON trcstat_ptracer0E_min        =   1.2736139140362154E-07
(PID.TID 0000.0001) %MON trcstat_ptracer0E_mean       =   1.5975262795658897E-05
(PID.TID 0000.0001) %MON trcstat_ptracer0E_sd         =   7.9408963855491998E-05
(PID.TID 0000.0001) %MON trcstat_ptracer0E_del2       =   0.0000000000000000E+00
(PID.TID 0000.0001) %MON trcstat_ptracer0F_max        =   4.5972340425108187E-04
(PID.TID 0000.0001) %MON trcstat_ptracer0F_min        =   1.2736139140362109E-07
(PID.TID 0000.0001) %MON trcstat_ptracer0F_mean       =   1.5975262151486895E-05
(PID.TID 0000.0001) %MON trcstat_ptracer0F_sd         =   7.9408960368841238E-05
(PID.TID 0000.0001) %MON trcstat_ptracer0F_del2       =   0.0000000000000000E+00
(PID.TID 0000.0001) %MON trcstat_ptracer0G_max        =   4.5972338638169383E-04
(PID.TID 0000.0001) %MON trcstat_ptracer0G_min        =   1.2736139140362074E-07
(PID.TID 0000.0001) %MON trcstat_ptracer0G_mean       =   1.5975261618247969E-05
(PID.TID 0000.0001) %MON trcstat_ptracer0G_sd         =   7.9408957482627780E-05
(PID.TID 0000.0001) %MON trcstat_ptracer0G_del2       =   0.0000000000000000E+00
(PID.TID 0000.0001) %MON trcstat_ptracer0H_max        =   4.5972337158959909E-04
(PID.TID 0000.0001) %MON trcstat_ptracer0H_min        =   1.2736139140362042E-07
(PID.TID 0000.0001) %MON trcstat_ptracer0H_mean       =   1.5975261176838290E-05
(PID.TID 0000.0001) %MON trcstat_ptracer0H_sd         =   7.9408955093450111E-05
(PID.TID 0000.0001) %MON trcstat_ptracer0H_del2       =   0.0000000000000000E+00
(PID.TID 0000.0001) %MON trcstat_ptracer0I_max        =   5.0224747368777263E-07
(PID.TID 0000.0001) %MON trcstat_ptracer0I_min        =   1.3966626743592373E-10
(PID.TID 0000.0001) %MON trcstat_ptracer0I_mean       =   1.6722427488321118E-08
(PID.TID 0000.0001) %MON trcstat_ptracer0I_sd         =   8.2695200151724364E-08
(PID.TID 0000.0001) %MON trcstat_ptracer0I_del2       =   0.0000000000000000E+00
(PID.TID 0000.0001) %MON trcstat_ptracer0J_max        =   4.8838124551454710E-07
(PID.TID 0000.0001) %MON trcstat_ptracer0J_min        =   1.3576906785013875E-10
(PID.TID 0000.0001) %MON trcstat_ptracer0J_mean       =   1.6456908884137428E-08
(PID.TID 0000.0001) %MON trcstat_ptracer0J_sd         =   8.1481773723787296E-08
(PID.TID 0000.0001) %MON trcstat_ptracer0J_del2       =   0.0000000000000000E+00
(PID.TID 0000.0001) %MON trcstat_ptracer0K_max        =   4.7857265763373140E-07
(PID.TID 0000.0001) %MON trcstat_ptracer0K_min        =   1.3298864551689243E-10
(PID.TID 0000.0001) %MON trcstat_ptracer0K_mean       =   1.6277348461630897E-08
(PID.TID 0000.0001) %MON trcstat_ptracer0K_sd         =   8.0677043886212892E-08
(PID.TID 0000.0001) %MON trcstat_ptracer0K_del2       =   0.0000000000000000E+00
(PID.TID 0000.0001) %MON trcstat_ptracer0L_max        =   4.7173279526290630E-07
(PID.TID 0000.0001) %MON trcstat_ptracer0L_min        =   1.3102655702601675E-10
(PID.TID 0000.0001) %MON trcstat_ptracer0L_mean       =   1.6156883417288465E-08
(PID.TID 0000.0001) %MON trcstat_ptracer0L_sd         =   8.0147050385969785E-08
(PID.TID 0000.0001) %MON trcstat_ptracer0L_del2       =   0.0000000000000000E+00
(PID.TID 0000.0001) %MON trcstat_ptracer0M_max        =   1.8403021076898093E-07
(PID.TID 0000.0001) %MON trcstat_ptracer0M_min        =   5.1007104873121967E-11
(PID.TID 0000.0001) %MON trcstat_ptracer0M_mean       =   6.3850628166850377E-09
(PID.TID 0000.0001) %MON trcstat_ptracer0M_sd         =   3.1729911251389871E-08
(PID.TID 0000.0001) %MON trcstat_ptracer0M_del2       =   0.0000000000000000E+00
(PID.TID 0000.0001) %MON trcstat_ptracer0N_max        =   4.6705235888179695E-07
(PID.TID 0000.0001) %MON trcstat_ptracer0N_min        =   1.2966279357098365E-10
(PID.TID 0000.0001) %MON trcstat_ptracer0N_mean       =   1.6077009248382706E-08
(PID.TID 0000.0001) %MON trcstat_ptracer0N_sd         =   7.9801489776469519E-08
(PID.TID 0000.0001) %MON trcstat_ptracer0N_del2       =   0.0000000000000000E+00
(PID.TID 0000.0001) %MON trcstat_ptracer0O_max        =   4.6392163777246678E-07
(PID.TID 0000.0001) %MON trcstat_ptracer0O_min        =   1.2873354114267291E-10
(PID.TID 0000.0001) %MON trcstat_ptracer0O_mean       =   1.6024828138114632E-08
(PID.TID 0000.0001) %MON trcstat_ptracer0O_sd         =   7.9578857968333675E-08
(PID.TID 0000.0001) %MON trcstat_ptracer0O_del2       =   0.0000000000000000E+00
(PID.TID 0000.0001) %MON trcstat_ptracer0P_max        =   1.8382563963333035E-07
(PID.TID 0000.0001) %MON trcstat_ptracer0P_min        =   5.0946595491671214E-11
(PID.TID 0000.0001) %MON trcstat_ptracer0P_mean       =   6.3816434388201016E-09
(PID.TID 0000.0001) %MON trcstat_ptracer0P_sd         =   3.1715082779626114E-08
(PID.TID 0000.0001) %MON trcstat_ptracer0P_del2       =   0.0000000000000000E+00
(PID.TID 0000.0001) %MON trcstat_ptracer0Q_max        =   4.6392163777246678E-07
(PID.TID 0000.0001) %MON trcstat_ptracer0Q_min        =   1.2873354114267291E-10
(PID.TID 0000.0001) %MON trcstat_ptracer0Q_mean       =   1.6024828138114632E-08
(PID.TID 0000.0001) %MON trcstat_ptracer0Q_sd         =   7.9578857968333675E-08
(PID.TID 0000.0001) %MON trcstat_ptracer0Q_del2       =   0.0000000000000000E+00
(PID.TID 0000.0001) %MON trcstat_ptracer0R_max        =   4.6188746306321118E-07
(PID.TID 0000.0001) %MON trcstat_ptracer0R_min        =   1.2811553707928611E-10
(PID.TID 0000.0001) %MON trcstat_ptracer0R_mean       =   1.5991534973818519E-08
(PID.TID 0000.0001) %MON trcstat_ptracer0R_sd         =   7.9438332268175779E-08
(PID.TID 0000.0001) %MON trcstat_ptracer0R_del2       =   0.0000000000000000E+00
(PID.TID 0000.0001) %MON trcstat_ptracer0S_max        =   1.8369354012831951E-07
(PID.TID 0000.0001) %MON trcstat_ptracer0S_min        =   5.0906353477041932E-11
(PID.TID 0000.0001) %MON trcstat_ptracer0S_mean       =   6.3794862760597213E-09
(PID.TID 0000.0001) %MON trcstat_ptracer0S_sd         =   3.1705608117357388E-08
(PID.TID 0000.0001) %MON trcstat_ptracer0S_del2       =   0.0000000000000000E+00
(PID.TID 0000.0001) %MON trcstat_ptracer0T_max        =   4.6188746306321118E-07
(PID.TID 0000.0001) %MON trcstat_ptracer0T_min        =   1.2811553707928611E-10
(PID.TID 0000.0001) %MON trcstat_ptracer0T_mean       =   1.5991534973818519E-08
(PID.TID 0000.0001) %MON trcstat_ptracer0T_sd         =   7.9438332268175779E-08
(PID.TID 0000.0001) %MON trcstat_ptracer0T_del2       =   0.0000000000000000E+00
(PID.TID 0000.0001) %MON trcstat_ptracer0U_max        =   4.6060235747703965E-07
(PID.TID 0000.0001) %MON trcstat_ptracer0U_min        =   1.2771572146112691E-10
(PID.TID 0000.0001) %MON trcstat_ptracer0U_mean       =   1.5970734665774956E-08
(PID.TID 0000.0001) %MON trcstat_ptracer0U_sd         =   7.9350760620822551E-08
(PID.TID 0000.0001) %MON trcstat_ptracer0U_del2       =   0.0000000000000000E+00
(PID.TID 0000.0001) %MON trcstat_ptracer0V_max        =   1.8361015662779977E-07
(PID.TID 0000.0001) %MON trcstat_ptracer0V_min        =   5.0880319125992260E-11
(PID.TID 0000.0001) %MON trcstat_ptracer0V_mean       =   6.3781407479040355E-09
(PID.TID 0000.0001) %MON trcstat_ptracer0V_sd         =   3.1699385245726606E-08
(PID.TID 0000.0001) %MON trcstat_ptracer0V_del2       =   0.0000000000000000E+00
(PID.TID 0000.0001) %MON trcstat_ptracer0W_max        =   4.6060235747703965E-07
(PID.TID 0000.0001) %MON trcstat_ptracer0W_min        =   1.2771572146112691E-10
(PID.TID 0000.0001) %MON trcstat_ptracer0W_mean       =   1.5970734665774956E-08
(PID.TID 0000.0001) %MON trcstat_ptracer0W_sd         =   7.9350760620822551E-08
(PID.TID 0000.0001) %MON trcstat_ptracer0W_del2       =   0.0000000000000000E+00
(PID.TID 0000.0001) %MON trcstat_ptracer0X_max        =   4.5981397890494318E-07
(PID.TID 0000.0001) %MON trcstat_ptracer0X_min        =   1.2746452976094220E-10
(PID.TID 0000.0001) %MON trcstat_ptracer0X_mean       =   1.5958052347808966E-08
(PID.TID 0000.0001) %MON trcstat_ptracer0X_sd         =   7.9296640816069978E-08
(PID.TID 0000.0001) %MON trcstat_ptracer0X_del2       =   0.0000000000000000E+00
(PID.TID 0000.0001) %MON trcstat_ptracer0Y_max        =   1.8355906843498103E-07
(PID.TID 0000.0001) %MON trcstat_ptracer0Y_min        =   5.0863962672799131E-11
(PID.TID 0000.0001) %MON trcstat_ptracer0Y_mean       =   6.3773222985742326E-09
(PID.TID 0000.0001) %MON trcstat_ptracer0Y_sd         =   3.1695093155544968E-08
(PID.TID 0000.0001) %MON trcstat_ptracer0Y_del2       =   0.0000000000000000E+00
(PID.TID 0000.0001) %MON trcstat_ptracer0Z_max        =   4.5981397890494318E-07
(PID.TID 0000.0001) %MON trcstat_ptracer0Z_min        =   1.2746452976094220E-10
(PID.TID 0000.0001) %MON trcstat_ptracer0Z_mean       =   1.5958052347808966E-08
(PID.TID 0000.0001) %MON trcstat_ptracer0Z_sd         =   7.9296640816069978E-08
(PID.TID 0000.0001) %MON trcstat_ptracer0Z_del2       =   0.0000000000000000E+00
(PID.TID 0000.0001) %MON trcstat_ptracer1a_max        =   4.5934374057649951E-07
(PID.TID 0000.0001) %MON trcstat_ptracer1a_min        =   1.2731124175769481E-10
(PID.TID 0000.0001) %MON trcstat_ptracer1a_mean       =   1.5950508270940287E-08
(PID.TID 0000.0001) %MON trcstat_ptracer1a_sd         =   7.9262846411058760E-08
(PID.TID 0000.0001) %MON trcstat_ptracer1a_del2       =   0.0000000000000000E+00
(PID.TID 0000.0001) %MON trcstat_ptracer1b_max        =   4.5934374057649951E-07
(PID.TID 0000.0001) %MON trcstat_ptracer1b_min        =   1.2731124175769481E-10
(PID.TID 0000.0001) %MON trcstat_ptracer1b_mean       =   1.5950508270940287E-08
(PID.TID 0000.0001) %MON trcstat_ptracer1b_sd         =   7.9262846411058760E-08
(PID.TID 0000.0001) %MON trcstat_ptracer1b_del2       =   0.0000000000000000E+00
(PID.TID 0000.0001) %MON trcstat_ptracer1c_max        =   4.5907114078846454E-07
(PID.TID 0000.0001) %MON trcstat_ptracer1c_min        =   1.2722021380287705E-10
(PID.TID 0000.0001) %MON trcstat_ptracer1c_mean       =   1.5946149476682701E-08
(PID.TID 0000.0001) %MON trcstat_ptracer1c_sd         =   7.9240767200059563E-08
(PID.TID 0000.0001) %MON trcstat_ptracer1c_del2       =   0.0000000000000000E+00
(PID.TID 0000.0001) %MON trcstat_ptracer1d_max        =   4.5891510152386748E-07
(PID.TID 0000.0001) %MON trcstat_ptracer1d_min        =   1.2716745179139060E-10
(PID.TID 0000.0001) %MON trcstat_ptracer1d_mean       =   1.5943639483773171E-08
(PID.TID 0000.0001) %MON trcstat_ptracer1d_sd         =   7.9224237716609376E-08
(PID.TID 0000.0001) %MON trcstat_ptracer1d_del2       =   0.0000000000000000E+00
(PID.TID 0000.0001) %MON trcstat_ptracer1e_max        =   4.5882780233213931E-07
(PID.TID 0000.0001) %MON trcstat_ptracer1e_min        =   1.2713749358739264E-10
(PID.TID 0000.0001) %MON trcstat_ptracer1e_mean       =   1.5942231894201885E-08
(PID.TID 0000.0001) %MON trcstat_ptracer1e_sd         =   7.9209529295439339E-08
(PID.TID 0000.0001) %MON trcstat_ptracer1e_del2       =   0.0000000000000000E+00
(PID.TID 0000.0001) %MON trcstat_ptracer1f_max        =   4.5877968278863298E-07
(PID.TID 0000.0001) %MON trcstat_ptracer1f_min        =   1.2712076927030468E-10
(PID.TID 0000.0001) %MON trcstat_ptracer1f_mean       =   1.5941453909656534E-08
(PID.TID 0000.0001) %MON trcstat_ptracer1f_sd         =   7.9193733206998294E-08
(PID.TID 0000.0001) %MON trcstat_ptracer1f_del2       =   0.0000000000000000E+00
(PID.TID 0000.0001) %MON trcstat_ptracer1g_max        =   4.5972693644750366E-07
(PID.TID 0000.0001) %MON trcstat_ptracer1g_min        =   1.2736139140369218E-10
(PID.TID 0000.0001) %MON trcstat_ptracer1g_mean       =   1.5975367555467429E-08
(PID.TID 0000.0001) %MON trcstat_ptracer1g_sd         =   7.9409530879417436E-08
(PID.TID 0000.0001) %MON trcstat_ptracer1g_del2       =   0.0000000000000000E+00
(PID.TID 0000.0001) %MON trcstat_ptracer1h_max        =   4.5972631029738719E-07
(PID.TID 0000.0001) %MON trcstat_ptracer1h_min        =   1.2736139140367957E-10
(PID.TID 0000.0001) %MON trcstat_ptracer1h_mean       =   1.5975348870573721E-08
(PID.TID 0000.0001) %MON trcstat_ptracer1h_sd         =   7.9409429745369619E-08
(PID.TID 0000.0001) %MON trcstat_ptracer1h_del2       =   0.0000000000000000E+00
(PID.TID 0000.0001) %MON trcstat_ptracer1i_max        =   4.5972579197679186E-07
(PID.TID 0000.0001) %MON trcstat_ptracer1i_min        =   1.2736139140366915E-10
(PID.TID 0000.0001) %MON trcstat_ptracer1i_mean       =   1.5975333403411812E-08
(PID.TID 0000.0001) %MON trcstat_ptracer1i_sd         =   7.9409346027655392E-08
(PID.TID 0000.0001) %MON trcstat_ptracer1i_del2       =   0.0000000000000000E+00
(PID.TID 0000.0001) %MON trcstat_ptracer1j_max        =   4.5972536291635985E-07
(PID.TID 0000.0001) %MON trcstat_ptracer1j_min        =   1.2736139140366049E-10
(PID.TID 0000.0001) %MON trcstat_ptracer1j_mean       =   1.5975320599855040E-08
(PID.TID 0000.0001) %MON trcstat_ptracer1j_sd         =   7.9409276727000400E-08
(PID.TID 0000.0001) %MON trcstat_ptracer1j_del2       =   0.0000000000000000E+00
(PID.TID 0000.0001) %MON trcstat_ptracer1k_max        =   4.5972592010098440E-07
(PID.TID 0000.0001) %MON trcstat_ptracer1k_min        =   1.2736139140367191E-10
(PID.TID 0000.0001) %MON trcstat_ptracer1k_mean       =   1.5975337235341848E-08
(PID.TID 0000.0001) %MON trcstat_ptracer1k_sd         =   7.9409366752348518E-08
(PID.TID 0000.0001) %MON trcstat_ptracer1k_del2       =   0.0000000000000000E+00
(PID.TID 0000.0001) %MON trcstat_ptracer1l_max        =   4.5973014467651684E-07
(PID.TID 0000.0001) %MON trcstat_ptracer1l_min        =   1.2736139140376247E-10
(PID.TID 0000.0001) %MON trcstat_ptracer1l_mean       =   1.5975463538416550E-08
(PID.TID 0000.0001) %MON trcstat_ptracer1l_sd         =   7.9410049936070060E-08
(PID.TID 0000.0001) %MON trcstat_ptracer1l_del2       =   0.0000000000000000E+00
(PID.TID 0000.0001) %MON trcstat_ptracer1m_max        =   4.5972896603620776E-07
(PID.TID 0000.0001) %MON trcstat_ptracer1m_min        =   1.2736139140373775E-10
(PID.TID 0000.0001) %MON trcstat_ptracer1m_mean       =   1.5975428324267036E-08
(PID.TID 0000.0001) %MON trcstat_ptracer1m_sd         =   7.9409859415059788E-08
(PID.TID 0000.0001) %MON trcstat_ptracer1m_del2       =   0.0000000000000000E+00
(PID.TID 0000.0001) %MON trcstat_ptracer1n_max        =   4.5972799036994097E-07
(PID.TID 0000.0001) %MON trcstat_ptracer1n_min        =   1.2736139140371731E-10
(PID.TID 0000.0001) %MON trcstat_ptracer1n_mean       =   1.5975399174358007E-08
(PID.TID 0000.0001) %MON trcstat_ptracer1n_sd         =   7.9409701703755228E-08
(PID.TID 0000.0001) %MON trcstat_ptracer1n_del2       =   0.0000000000000000E+00
(PID.TID 0000.0001) %MON trcstat_ptracer1o_max        =   4.5972718272348869E-07
(PID.TID 0000.0001) %MON trcstat_ptracer1o_min        =   1.2736139140370038E-10
(PID.TID 0000.0001) %MON trcstat_ptracer1o_mean       =   1.5975375044364558E-08
(PID.TID 0000.0001) %MON trcstat_ptracer1o_sd         =   7.9409571151980078E-08
(PID.TID 0000.0001) %MON trcstat_ptracer1o_del2       =   0.0000000000000000E+00
(PID.TID 0000.0001) %MON trcstat_ptracer1p_max        =   4.5972586024762915E-07
(PID.TID 0000.0001) %MON trcstat_ptracer1p_min        =   1.2736139140367246E-10
(PID.TID 0000.0001) %MON trcstat_ptracer1p_mean       =   1.5975335524482609E-08
(PID.TID 0000.0001) %MON trcstat_ptracer1p_sd         =   7.9409357351202959E-08
(PID.TID 0000.0001) %MON trcstat_ptracer1p_del2       =   0.0000000000000000E+00
(PID.TID 0000.0001) %MON trcstat_ptracer1q_max        =   4.5972384979839523E-07
(PID.TID 0000.0001) %MON trcstat_ptracer1q_min        =   1.2736139140363004E-10
(PID.TID 0000.0001) %MON trcstat_ptracer1q_mean       =   1.5975275447027323E-08
(PID.TID 0000.0001) %MON trcstat_ptracer1q_sd         =   7.9409032332395968E-08
(PID.TID 0000.0001) %MON trcstat_ptracer1q_del2       =   0.0000000000000000E+00
(PID.TID 0000.0001) %MON trcstat_ptracer1r_max        =   4.5972375520115519E-07
(PID.TID 0000.0001) %MON trcstat_ptracer1r_min        =   1.2736139140362815E-10
(PID.TID 0000.0001) %MON trcstat_ptracer1r_mean       =   1.5975272624158931E-08
(PID.TID 0000.0001) %MON trcstat_ptracer1r_sd         =   7.9409017053314281E-08
(PID.TID 0000.0001) %MON trcstat_ptracer1r_del2       =   0.0000000000000000E+00
(PID.TID 0000.0001) %MON trcstat_ptracer1s_max        =   4.5972367689453750E-07
(PID.TID 0000.0001) %MON trcstat_ptracer1s_min        =   1.2736139140362658E-10
(PID.TID 0000.0001) %MON trcstat_ptracer1s_mean       =   1.5975270287417641E-08
(PID.TID 0000.0001) %MON trcstat_ptracer1s_sd         =   7.9409004405448488E-08
(PID.TID 0000.0001) %MON trcstat_ptracer1s_del2       =   0.0000000000000000E+00
(PID.TID 0000.0001) %MON trcstat_ptracer1t_max        =   4.5972361207312866E-07
(PID.TID 0000.0001) %MON trcstat_ptracer1t_min        =   1.2736139140362526E-10
(PID.TID 0000.0001) %MON trcstat_ptracer1t_mean       =   1.5975268353087353E-08
(PID.TID 0000.0001) %MON trcstat_ptracer1t_sd         =   7.9408993935675972E-08
(PID.TID 0000.0001) %MON trcstat_ptracer1t_del2       =   0.0000000000000000E+00
(PID.TID 0000.0001) %MON trcstat_ptracer1u_max        =   0.0000000000000000E+00
(PID.TID 0000.0001) %MON trcstat_ptracer1u_min        =   0.0000000000000000E+00
(PID.TID 0000.0001) %MON trcstat_ptracer1u_mean       =   0.0000000000000000E+00
(PID.TID 0000.0001) %MON trcstat_ptracer1u_sd         =   0.0000000000000000E+00
(PID.TID 0000.0001) %MON trcstat_ptracer1u_del2       =   0.0000000000000000E+00
(PID.TID 0000.0001) %MON trcstat_ptracer1v_max        =   0.0000000000000000E+00
(PID.TID 0000.0001) %MON trcstat_ptracer1v_min        =   0.0000000000000000E+00
(PID.TID 0000.0001) %MON trcstat_ptracer1v_mean       =   0.0000000000000000E+00
(PID.TID 0000.0001) %MON trcstat_ptracer1v_sd         =   0.0000000000000000E+00
(PID.TID 0000.0001) %MON trcstat_ptracer1v_del2       =   0.0000000000000000E+00
(PID.TID 0000.0001) %MON trcstat_ptracer1w_max        =   0.0000000000000000E+00
(PID.TID 0000.0001) %MON trcstat_ptracer1w_min        =   0.0000000000000000E+00
(PID.TID 0000.0001) %MON trcstat_ptracer1w_mean       =   0.0000000000000000E+00
(PID.TID 0000.0001) %MON trcstat_ptracer1w_sd         =   0.0000000000000000E+00
(PID.TID 0000.0001) %MON trcstat_ptracer1w_del2       =   0.0000000000000000E+00
(PID.TID 0000.0001) %MON trcstat_ptracer1x_max        =   0.0000000000000000E+00
(PID.TID 0000.0001) %MON trcstat_ptracer1x_min        =   0.0000000000000000E+00
(PID.TID 0000.0001) %MON trcstat_ptracer1x_mean       =   0.0000000000000000E+00
(PID.TID 0000.0001) %MON trcstat_ptracer1x_sd         =   0.0000000000000000E+00
(PID.TID 0000.0001) %MON trcstat_ptracer1x_del2       =   0.0000000000000000E+00
(PID.TID 0000.0001) %MON trcstat_ptracer1y_max        =   0.0000000000000000E+00
(PID.TID 0000.0001) %MON trcstat_ptracer1y_min        =   0.0000000000000000E+00
(PID.TID 0000.0001) %MON trcstat_ptracer1y_mean       =   0.0000000000000000E+00
(PID.TID 0000.0001) %MON trcstat_ptracer1y_sd         =   0.0000000000000000E+00
(PID.TID 0000.0001) %MON trcstat_ptracer1y_del2       =   0.0000000000000000E+00
(PID.TID 0000.0001) %MON trcstat_ptracer1z_max        =   0.0000000000000000E+00
(PID.TID 0000.0001) %MON trcstat_ptracer1z_min        =   0.0000000000000000E+00
(PID.TID 0000.0001) %MON trcstat_ptracer1z_mean       =   0.0000000000000000E+00
(PID.TID 0000.0001) %MON trcstat_ptracer1z_sd         =   0.0000000000000000E+00
(PID.TID 0000.0001) %MON trcstat_ptracer1z_del2       =   0.0000000000000000E+00
(PID.TID 0000.0001) %MON trcstat_ptracer1A_max        =   7.3395935114591790E-03
(PID.TID 0000.0001) %MON trcstat_ptracer1A_min        =   2.0336107677137490E-06
(PID.TID 0000.0001) %MON trcstat_ptracer1A_mean       =   2.5504572120282605E-04
(PID.TID 0000.0001) %MON trcstat_ptracer1A_sd         =   1.2677001627105213E-03
(PID.TID 0000.0001) %MON trcstat_ptracer1A_del2       =   0.0000000000000000E+00
(PID.TID 0000.0001) %MON trcstat_ptracer1B_max        =   0.0000000000000000E+00
(PID.TID 0000.0001) %MON trcstat_ptracer1B_min        =   0.0000000000000000E+00
(PID.TID 0000.0001) %MON trcstat_ptracer1B_mean       =   0.0000000000000000E+00
(PID.TID 0000.0001) %MON trcstat_ptracer1B_sd         =   0.0000000000000000E+00
(PID.TID 0000.0001) %MON trcstat_ptracer1B_del2       =   0.0000000000000000E+00
(PID.TID 0000.0001) %MON trcstat_ptracer1C_max        =   0.0000000000000000E+00
(PID.TID 0000.0001) %MON trcstat_ptracer1C_min        =   0.0000000000000000E+00
(PID.TID 0000.0001) %MON trcstat_ptracer1C_mean       =   0.0000000000000000E+00
(PID.TID 0000.0001) %MON trcstat_ptracer1C_sd         =   0.0000000000000000E+00
(PID.TID 0000.0001) %MON trcstat_ptracer1C_del2       =   0.0000000000000000E+00
(PID.TID 0000.0001) %MON trcstat_ptracer1D_max        =   7.3396107251237613E-03
(PID.TID 0000.0001) %MON trcstat_ptracer1D_min        =   2.0336107729897758E-06
(PID.TID 0000.0001) %MON trcstat_ptracer1D_mean       =   2.5504623549319584E-04
(PID.TID 0000.0001) %MON trcstat_ptracer1D_sd         =   1.2676830270105101E-03
(PID.TID 0000.0001) %MON trcstat_ptracer1D_del2       =   0.0000000000000000E+00
(PID.TID 0000.0001) %MON trcstat_ptracer1E_max        =   0.0000000000000000E+00
(PID.TID 0000.0001) %MON trcstat_ptracer1E_min        =   0.0000000000000000E+00
(PID.TID 0000.0001) %MON trcstat_ptracer1E_mean       =   0.0000000000000000E+00
(PID.TID 0000.0001) %MON trcstat_ptracer1E_sd         =   0.0000000000000000E+00
(PID.TID 0000.0001) %MON trcstat_ptracer1E_del2       =   0.0000000000000000E+00
(PID.TID 0000.0001) %MON trcstat_ptracer1F_max        =   0.0000000000000000E+00
(PID.TID 0000.0001) %MON trcstat_ptracer1F_min        =   0.0000000000000000E+00
(PID.TID 0000.0001) %MON trcstat_ptracer1F_mean       =   0.0000000000000000E+00
(PID.TID 0000.0001) %MON trcstat_ptracer1F_sd         =   0.0000000000000000E+00
(PID.TID 0000.0001) %MON trcstat_ptracer1F_del2       =   0.0000000000000000E+00
(PID.TID 0000.0001) %MON trcstat_ptracer1G_max        =   7.3396249744367842E-03
(PID.TID 0000.0001) %MON trcstat_ptracer1G_min        =   2.0336107803627868E-06
(PID.TID 0000.0001) %MON trcstat_ptracer1G_mean       =   2.5504666121744862E-04
(PID.TID 0000.0001) %MON trcstat_ptracer1G_sd         =   1.2676575131765919E-03
(PID.TID 0000.0001) %MON trcstat_ptracer1G_del2       =   0.0000000000000000E+00
(PID.TID 0000.0001) %MON trcstat_ptracer1H_max        =   0.0000000000000000E+00
(PID.TID 0000.0001) %MON trcstat_ptracer1H_min        =   0.0000000000000000E+00
(PID.TID 0000.0001) %MON trcstat_ptracer1H_mean       =   0.0000000000000000E+00
(PID.TID 0000.0001) %MON trcstat_ptracer1H_sd         =   0.0000000000000000E+00
(PID.TID 0000.0001) %MON trcstat_ptracer1H_del2       =   0.0000000000000000E+00
(PID.TID 0000.0001) %MON trcstat_ptracer1I_max        =   0.0000000000000000E+00
(PID.TID 0000.0001) %MON trcstat_ptracer1I_min        =   0.0000000000000000E+00
(PID.TID 0000.0001) %MON trcstat_ptracer1I_mean       =   0.0000000000000000E+00
(PID.TID 0000.0001) %MON trcstat_ptracer1I_sd         =   0.0000000000000000E+00
(PID.TID 0000.0001) %MON trcstat_ptracer1I_del2       =   0.0000000000000000E+00
(PID.TID 0000.0001) %MON trcstat_ptracer1J_max        =   7.3396367698979276E-03
(PID.TID 0000.0001) %MON trcstat_ptracer1J_min        =   2.0336107906663564E-06
(PID.TID 0000.0001) %MON trcstat_ptracer1J_mean       =   2.5504701362758539E-04
(PID.TID 0000.0001) %MON trcstat_ptracer1J_sd         =   1.2676205814742625E-03
(PID.TID 0000.0001) %MON trcstat_ptracer1J_del2       =   0.0000000000000000E+00
(PID.TID 0000.0001) %MON trcstat_ptracer1K_max        =   0.0000000000000000E+00
(PID.TID 0000.0001) %MON trcstat_ptracer1K_min        =   0.0000000000000000E+00
(PID.TID 0000.0001) %MON trcstat_ptracer1K_mean       =   0.0000000000000000E+00
(PID.TID 0000.0001) %MON trcstat_ptracer1K_sd         =   0.0000000000000000E+00
(PID.TID 0000.0001) %MON trcstat_ptracer1K_del2       =   0.0000000000000000E+00
(PID.TID 0000.0001) %MON trcstat_ptracer1L_max        =   0.0000000000000000E+00
(PID.TID 0000.0001) %MON trcstat_ptracer1L_min        =   0.0000000000000000E+00
(PID.TID 0000.0001) %MON trcstat_ptracer1L_mean       =   0.0000000000000000E+00
(PID.TID 0000.0001) %MON trcstat_ptracer1L_sd         =   0.0000000000000000E+00
(PID.TID 0000.0001) %MON trcstat_ptracer1L_del2       =   0.0000000000000000E+00
(PID.TID 0000.0001) %MON trcstat_ptracer1M_max        =   7.3396486074047843E-03
(PID.TID 0000.0001) %MON trcstat_ptracer1M_min        =   2.0336108050654405E-06
(PID.TID 0000.0001) %MON trcstat_ptracer1M_mean       =   2.5504736743978937E-04
(PID.TID 0000.0001) %MON trcstat_ptracer1M_sd         =   1.2675682892277047E-03
(PID.TID 0000.0001) %MON trcstat_ptracer1M_del2       =   0.0000000000000000E+00
(PID.TID 0000.0001) %MON trcstat_ptracer1N_max        =   0.0000000000000000E+00
(PID.TID 0000.0001) %MON trcstat_ptracer1N_min        =   0.0000000000000000E+00
(PID.TID 0000.0001) %MON trcstat_ptracer1N_mean       =   0.0000000000000000E+00
(PID.TID 0000.0001) %MON trcstat_ptracer1N_sd         =   0.0000000000000000E+00
(PID.TID 0000.0001) %MON trcstat_ptracer1N_del2       =   0.0000000000000000E+00
(PID.TID 0000.0001) %MON trcstat_ptracer1O_max        =   7.3396742148103466E-03
(PID.TID 0000.0001) %MON trcstat_ptracer1O_min        =   2.0336108251882748E-06
(PID.TID 0000.0001) %MON trcstat_ptracer1O_mean       =   2.5504813305313905E-04
(PID.TID 0000.0001) %MON trcstat_ptracer1O_sd         =   1.2674968143445554E-03
(PID.TID 0000.0001) %MON trcstat_ptracer1O_del2       =   0.0000000000000000E+00
(PID.TID 0000.0001) %MON trcstat_ptracer1P_max        =   7.3396775307349527E-03
(PID.TID 0000.0001) %MON trcstat_ptracer1P_min        =   2.0336108533091164E-06
(PID.TID 0000.0001) %MON trcstat_ptracer1P_mean       =   2.5504823199795873E-04
(PID.TID 0000.0001) %MON trcstat_ptracer1P_sd         =   1.2673919451921514E-03
(PID.TID 0000.0001) %MON trcstat_ptracer1P_del2       =   0.0000000000000000E+00
(PID.TID 0000.0001) %MON trcstat_ptracer1Q_max        =   7.3396802757263856E-03
(PID.TID 0000.0001) %MON trcstat_ptracer1Q_min        =   2.0336108926077902E-06
(PID.TID 0000.0001) %MON trcstat_ptracer1Q_mean       =   2.5504831390345793E-04
(PID.TID 0000.0001) %MON trcstat_ptracer1Q_sd         =   1.2672456093527015E-03
(PID.TID 0000.0001) %MON trcstat_ptracer1Q_del2       =   0.0000000000000000E+00
(PID.TID 0000.0001) %MON trcstat_ptracer1R_max        =   7.3396825481463045E-03
(PID.TID 0000.0001) %MON trcstat_ptracer1R_min        =   2.0336109475274261E-06
(PID.TID 0000.0001) %MON trcstat_ptracer1R_mean       =   2.5504838170398376E-04
(PID.TID 0000.0001) %MON trcstat_ptracer1R_sd         =   1.2670418756729853E-03
(PID.TID 0000.0001) %MON trcstat_ptracer1R_del2       =   0.0000000000000000E+00
(PID.TID 0000.0001) %MON trcstat_ptracer1S_max        =   0.0000000000000000E+00
(PID.TID 0000.0001) %MON trcstat_ptracer1S_min        =   0.0000000000000000E+00
(PID.TID 0000.0001) %MON trcstat_ptracer1S_mean       =   0.0000000000000000E+00
(PID.TID 0000.0001) %MON trcstat_ptracer1S_sd         =   0.0000000000000000E+00
(PID.TID 0000.0001) %MON trcstat_ptracer1S_del2       =   0.0000000000000000E+00
(PID.TID 0000.0001) %MON trcstat_ptracer1T_max        =   0.0000000000000000E+00
(PID.TID 0000.0001) %MON trcstat_ptracer1T_min        =   0.0000000000000000E+00
(PID.TID 0000.0001) %MON trcstat_ptracer1T_mean       =   0.0000000000000000E+00
(PID.TID 0000.0001) %MON trcstat_ptracer1T_sd         =   0.0000000000000000E+00
(PID.TID 0000.0001) %MON trcstat_ptracer1T_del2       =   0.0000000000000000E+00
(PID.TID 0000.0001) %MON trcstat_ptracer1U_max        =   0.0000000000000000E+00
(PID.TID 0000.0001) %MON trcstat_ptracer1U_min        =   0.0000000000000000E+00
(PID.TID 0000.0001) %MON trcstat_ptracer1U_mean       =   0.0000000000000000E+00
(PID.TID 0000.0001) %MON trcstat_ptracer1U_sd         =   0.0000000000000000E+00
(PID.TID 0000.0001) %MON trcstat_ptracer1U_del2       =   0.0000000000000000E+00
(PID.TID 0000.0001) %MON trcstat_ptracer1V_max        =   0.0000000000000000E+00
(PID.TID 0000.0001) %MON trcstat_ptracer1V_min        =   0.0000000000000000E+00
(PID.TID 0000.0001) %MON trcstat_ptracer1V_mean       =   0.0000000000000000E+00
(PID.TID 0000.0001) %MON trcstat_ptracer1V_sd         =   0.0000000000000000E+00
(PID.TID 0000.0001) %MON trcstat_ptracer1V_del2       =   0.0000000000000000E+00
(PID.TID 0000.0001) %MON trcstat_ptracer1W_max        =   0.0000000000000000E+00
(PID.TID 0000.0001) %MON trcstat_ptracer1W_min        =   0.0000000000000000E+00
(PID.TID 0000.0001) %MON trcstat_ptracer1W_mean       =   0.0000000000000000E+00
(PID.TID 0000.0001) %MON trcstat_ptracer1W_sd         =   0.0000000000000000E+00
(PID.TID 0000.0001) %MON trcstat_ptracer1W_del2       =   0.0000000000000000E+00
(PID.TID 0000.0001) %MON trcstat_ptracer1X_max        =   0.0000000000000000E+00
(PID.TID 0000.0001) %MON trcstat_ptracer1X_min        =   0.0000000000000000E+00
(PID.TID 0000.0001) %MON trcstat_ptracer1X_mean       =   0.0000000000000000E+00
(PID.TID 0000.0001) %MON trcstat_ptracer1X_sd         =   0.0000000000000000E+00
(PID.TID 0000.0001) %MON trcstat_ptracer1X_del2       =   0.0000000000000000E+00
(PID.TID 0000.0001) %MON trcstat_ptracer1Y_max        =   0.0000000000000000E+00
(PID.TID 0000.0001) %MON trcstat_ptracer1Y_min        =   0.0000000000000000E+00
(PID.TID 0000.0001) %MON trcstat_ptracer1Y_mean       =   0.0000000000000000E+00
(PID.TID 0000.0001) %MON trcstat_ptracer1Y_sd         =   0.0000000000000000E+00
(PID.TID 0000.0001) %MON trcstat_ptracer1Y_del2       =   0.0000000000000000E+00
(PID.TID 0000.0001) %MON trcstat_ptracer1Z_max        =   0.0000000000000000E+00
(PID.TID 0000.0001) %MON trcstat_ptracer1Z_min        =   0.0000000000000000E+00
(PID.TID 0000.0001) %MON trcstat_ptracer1Z_mean       =   0.0000000000000000E+00
(PID.TID 0000.0001) %MON trcstat_ptracer1Z_sd         =   0.0000000000000000E+00
(PID.TID 0000.0001) %MON trcstat_ptracer1Z_del2       =   0.0000000000000000E+00
(PID.TID 0000.0001) %MON trcstat_ptracer2a_max        =   0.0000000000000000E+00
(PID.TID 0000.0001) %MON trcstat_ptracer2a_min        =   0.0000000000000000E+00
(PID.TID 0000.0001) %MON trcstat_ptracer2a_mean       =   0.0000000000000000E+00
(PID.TID 0000.0001) %MON trcstat_ptracer2a_sd         =   0.0000000000000000E+00
(PID.TID 0000.0001) %MON trcstat_ptracer2a_del2       =   0.0000000000000000E+00
(PID.TID 0000.0001) %MON trcstat_ptracer2b_max        =   0.0000000000000000E+00
(PID.TID 0000.0001) %MON trcstat_ptracer2b_min        =   0.0000000000000000E+00
(PID.TID 0000.0001) %MON trcstat_ptracer2b_mean       =   0.0000000000000000E+00
(PID.TID 0000.0001) %MON trcstat_ptracer2b_sd         =   0.0000000000000000E+00
(PID.TID 0000.0001) %MON trcstat_ptracer2b_del2       =   0.0000000000000000E+00
(PID.TID 0000.0001) %MON trcstat_ptracer2c_max        =   0.0000000000000000E+00
(PID.TID 0000.0001) %MON trcstat_ptracer2c_min        =   0.0000000000000000E+00
(PID.TID 0000.0001) %MON trcstat_ptracer2c_mean       =   0.0000000000000000E+00
(PID.TID 0000.0001) %MON trcstat_ptracer2c_sd         =   0.0000000000000000E+00
(PID.TID 0000.0001) %MON trcstat_ptracer2c_del2       =   0.0000000000000000E+00
(PID.TID 0000.0001) %MON trcstat_ptracer2d_max        =   0.0000000000000000E+00
(PID.TID 0000.0001) %MON trcstat_ptracer2d_min        =   0.0000000000000000E+00
(PID.TID 0000.0001) %MON trcstat_ptracer2d_mean       =   0.0000000000000000E+00
(PID.TID 0000.0001) %MON trcstat_ptracer2d_sd         =   0.0000000000000000E+00
(PID.TID 0000.0001) %MON trcstat_ptracer2d_del2       =   0.0000000000000000E+00
(PID.TID 0000.0001) %MON trcstat_ptracer2e_max        =   0.0000000000000000E+00
(PID.TID 0000.0001) %MON trcstat_ptracer2e_min        =   0.0000000000000000E+00
(PID.TID 0000.0001) %MON trcstat_ptracer2e_mean       =   0.0000000000000000E+00
(PID.TID 0000.0001) %MON trcstat_ptracer2e_sd         =   0.0000000000000000E+00
(PID.TID 0000.0001) %MON trcstat_ptracer2e_del2       =   0.0000000000000000E+00
(PID.TID 0000.0001) %MON trcstat_ptracer2f_max        =   0.0000000000000000E+00
(PID.TID 0000.0001) %MON trcstat_ptracer2f_min        =   0.0000000000000000E+00
(PID.TID 0000.0001) %MON trcstat_ptracer2f_mean       =   0.0000000000000000E+00
(PID.TID 0000.0001) %MON trcstat_ptracer2f_sd         =   0.0000000000000000E+00
(PID.TID 0000.0001) %MON trcstat_ptracer2f_del2       =   0.0000000000000000E+00
(PID.TID 0000.0001) %MON trcstat_ptracer2g_max        =   1.2593984110773532E-02
(PID.TID 0000.0001) %MON trcstat_ptracer2g_min        =   4.5407013234066015E-06
(PID.TID 0000.0001) %MON trcstat_ptracer2g_mean       =   3.0943456064160267E-04
(PID.TID 0000.0001) %MON trcstat_ptracer2g_sd         =   1.5959218700071726E-03
(PID.TID 0000.0001) %MON trcstat_ptracer2g_del2       =   0.0000000000000000E+00
(PID.TID 0000.0001) %MON trcstat_ptracer2h_max        =   1.2835736748494727E-02
(PID.TID 0000.0001) %MON trcstat_ptracer2h_min        =   4.5434675522288800E-06
(PID.TID 0000.0001) %MON trcstat_ptracer2h_mean       =   3.1738578451881102E-04
(PID.TID 0000.0001) %MON trcstat_ptracer2h_sd         =   1.6326979003288256E-03
(PID.TID 0000.0001) %MON trcstat_ptracer2h_del2       =   0.0000000000000000E+00
(PID.TID 0000.0001) %MON trcstat_ptracer2i_max        =   1.3066631856453178E-02
(PID.TID 0000.0001) %MON trcstat_ptracer2i_min        =   4.5460234837462173E-06
(PID.TID 0000.0001) %MON trcstat_ptracer2i_mean       =   3.2532055732658341E-04
(PID.TID 0000.0001) %MON trcstat_ptracer2i_sd         =   1.6692195424750267E-03
(PID.TID 0000.0001) %MON trcstat_ptracer2i_del2       =   0.0000000000000000E+00
(PID.TID 0000.0001) %MON trcstat_ptracer2j_max        =   1.3286639372282997E-02
(PID.TID 0000.0001) %MON trcstat_ptracer2j_min        =   4.5483878953769002E-06
(PID.TID 0000.0001) %MON trcstat_ptracer2j_mean       =   3.3323018128500920E-04
(PID.TID 0000.0001) %MON trcstat_ptracer2j_sd         =   1.7054614000659633E-03
(PID.TID 0000.0001) %MON trcstat_ptracer2j_del2       =   0.0000000000000000E+00
(PID.TID 0000.0001) %MON trcstat_ptracer2k_max        =   1.3095798358323683E-03
(PID.TID 0000.0001) %MON trcstat_ptracer2k_min        =   4.5464005376539902E-07
(PID.TID 0000.0001) %MON trcstat_ptracer2k_mean       =   3.2635834132516749E-05
(PID.TID 0000.0001) %MON trcstat_ptracer2k_sd         =   1.6739740011174420E-04
(PID.TID 0000.0001) %MON trcstat_ptracer2k_del2       =   0.0000000000000000E+00
(PID.TID 0000.0001) %MON trcstat_ptracer2l_max        =   1.5314678020079391E-02
(PID.TID 0000.0001) %MON trcstat_ptracer2l_min        =   4.5669005799317142E-06
(PID.TID 0000.0001) %MON trcstat_ptracer2l_mean       =   4.3436463775037586E-04
(PID.TID 0000.0001) %MON trcstat_ptracer2l_sd         =   2.1626490738224798E-03
(PID.TID 0000.0001) %MON trcstat_ptracer2l_del2       =   0.0000000000000000E+00
(PID.TID 0000.0001) %MON trcstat_ptracer2m_max        =   1.6105908669791762E-02
(PID.TID 0000.0001) %MON trcstat_ptracer2m_min        =   4.5733035142022288E-06
(PID.TID 0000.0001) %MON trcstat_ptracer2m_mean       =   4.9116861599092054E-04
(PID.TID 0000.0001) %MON trcstat_ptracer2m_sd         =   2.4283680786949063E-03
(PID.TID 0000.0001) %MON trcstat_ptracer2m_del2       =   0.0000000000000000E+00
(PID.TID 0000.0001) %MON trcstat_ptracer2n_max        =   1.2590307574112784E-03
(PID.TID 0000.0001) %MON trcstat_ptracer2n_min        =   4.5408038930806984E-07
(PID.TID 0000.0001) %MON trcstat_ptracer2n_mean       =   3.0934042429959901E-05
(PID.TID 0000.0001) %MON trcstat_ptracer2n_sd         =   1.5954618455620825E-04
(PID.TID 0000.0001) %MON trcstat_ptracer2n_del2       =   0.0000000000000000E+00
(PID.TID 0000.0001) %MON trcstat_ptracer2o_max        =   1.5101894652028500E-02
(PID.TID 0000.0001) %MON trcstat_ptracer2o_min        =   4.5652419360162194E-06
(PID.TID 0000.0001) %MON trcstat_ptracer2o_mean       =   4.1986480424195514E-04
(PID.TID 0000.0001) %MON trcstat_ptracer2o_sd         =   2.0968913968784112E-03
(PID.TID 0000.0001) %MON trcstat_ptracer2o_del2       =   0.0000000000000000E+00
(PID.TID 0000.0001) %MON trcstat_ptracer2p_max        =   1.5807969806443223E-02
(PID.TID 0000.0001) %MON trcstat_ptracer2p_min        =   4.5708231553642104E-06
(PID.TID 0000.0001) %MON trcstat_ptracer2p_mean       =   4.7548634090652215E-04
(PID.TID 0000.0001) %MON trcstat_ptracer2p_sd         =   2.3525568608260068E-03
(PID.TID 0000.0001) %MON trcstat_ptracer2p_del2       =   0.0000000000000000E+00
(PID.TID 0000.0001) %MON trcstat_ptracer2q_max        =   1.2035618909763978E-03
(PID.TID 0000.0001) %MON trcstat_ptracer2q_min        =   4.5341480754855987E-07
(PID.TID 0000.0001) %MON trcstat_ptracer2q_mean       =   2.9228903687735000E-05
(PID.TID 0000.0001) %MON trcstat_ptracer2q_sd         =   1.5159199683645791E-04
(PID.TID 0000.0001) %MON trcstat_ptracer2q_del2       =   0.0000000000000000E+00
(PID.TID 0000.0001) %MON trcstat_ptracer2r_max        =   1.4855517174158280E-02
(PID.TID 0000.0001) %MON trcstat_ptracer2r_min        =   4.5632732012174000E-06
(PID.TID 0000.0001) %MON trcstat_ptracer2r_mean       =   4.0475239319534583E-04
(PID.TID 0000.0001) %MON trcstat_ptracer2r_sd         =   2.0287049461317030E-03
(PID.TID 0000.0001) %MON trcstat_ptracer2r_del2       =   0.0000000000000000E+00
(PID.TID 0000.0001) %MON trcstat_ptracer2s_max        =   1.5677941172031366E-02
(PID.TID 0000.0001) %MON trcstat_ptracer2s_min        =   4.5699479814472702E-06
(PID.TID 0000.0001) %MON trcstat_ptracer2s_mean       =   4.6338569309628042E-04
(PID.TID 0000.0001) %MON trcstat_ptracer2s_sd         =   2.2959302119698669E-03
(PID.TID 0000.0001) %MON trcstat_ptracer2s_del2       =   0.0000000000000000E+00
(PID.TID 0000.0001) %MON trcstat_ptracer2t_max        =   1.1433982103785142E-03
(PID.TID 0000.0001) %MON trcstat_ptracer2t_min        =   4.5262375188396749E-07
(PID.TID 0000.0001) %MON trcstat_ptracer2t_mean       =   2.7528615770783330E-05
(PID.TID 0000.0001) %MON trcstat_ptracer2t_sd         =   1.4356234128518394E-04
(PID.TID 0000.0001) %MON trcstat_ptracer2t_del2       =   0.0000000000000000E+00
(PID.TID 0000.0001) %MON trcstat_ptracer2u_max        =   1.4571572434121041E-02
(PID.TID 0000.0001) %MON trcstat_ptracer2u_min        =   4.5609385740989980E-06
(PID.TID 0000.0001) %MON trcstat_ptracer2u_mean       =   3.8910506480847060E-04
(PID.TID 0000.0001) %MON trcstat_ptracer2u_sd         =   1.9582700958831810E-03
(PID.TID 0000.0001) %MON trcstat_ptracer2u_del2       =   0.0000000000000000E+00
(PID.TID 0000.0001) %MON trcstat_ptracer2v_max        =   1.5525373007055880E-02
(PID.TID 0000.0001) %MON trcstat_ptracer2v_min        =   4.5689236429017754E-06
(PID.TID 0000.0001) %MON trcstat_ptracer2v_mean       =   4.5046713330249287E-04
(PID.TID 0000.0001) %MON trcstat_ptracer2v_sd         =   2.2361810531447432E-03
(PID.TID 0000.0001) %MON trcstat_ptracer2v_del2       =   0.0000000000000000E+00
(PID.TID 0000.0001) %MON trcstat_ptracer2w_max        =   1.0789721031803138E-03
(PID.TID 0000.0001) %MON trcstat_ptracer2w_min        =   4.5168422051570483E-07
(PID.TID 0000.0001) %MON trcstat_ptracer2w_mean       =   2.5841373928462113E-05
(PID.TID 0000.0001) %MON trcstat_ptracer2w_sd         =   1.3548919851907699E-04
(PID.TID 0000.0001) %MON trcstat_ptracer2w_del2       =   0.0000000000000000E+00
(PID.TID 0000.0001) %MON trcstat_ptracer2x_max        =   1.4246281040032180E-02
(PID.TID 0000.0001) %MON trcstat_ptracer2x_min        =   4.5581729822882176E-06
(PID.TID 0000.0001) %MON trcstat_ptracer2x_mean       =   3.7300714726387467E-04
(PID.TID 0000.0001) %MON trcstat_ptracer2x_sd         =   1.8857730489173640E-03
(PID.TID 0000.0001) %MON trcstat_ptracer2x_del2       =   0.0000000000000000E+00
(PID.TID 0000.0001) %MON trcstat_ptracer2y_max        =   1.5346912145111602E-02
(PID.TID 0000.0001) %MON trcstat_ptracer2y_min        =   4.5677290665808424E-06
(PID.TID 0000.0001) %MON trcstat_ptracer2y_mean       =   4.3678353749781535E-04
(PID.TID 0000.0001) %MON trcstat_ptracer2y_sd         =   2.1735248363472549E-03
(PID.TID 0000.0001) %MON trcstat_ptracer2y_del2       =   0.0000000000000000E+00
(PID.TID 0000.0001) %MON trcstat_ptracer2z_max        =   1.3876153629734092E-02
(PID.TID 0000.0001) %MON trcstat_ptracer2z_min        =   4.5549007861510136E-06
(PID.TID 0000.0001) %MON trcstat_ptracer2z_mean       =   3.5654528569960183E-04
(PID.TID 0000.0001) %MON trcstat_ptracer2z_sd         =   1.8113980674037355E-03
(PID.TID 0000.0001) %MON trcstat_ptracer2z_del2       =   0.0000000000000000E+00
(PID.TID 0000.0001) %MON trcstat_ptracer2A_max        =   1.5138927803125431E-02
(PID.TID 0000.0001) %MON trcstat_ptracer2A_min        =   4.5663420082111303E-06
(PID.TID 0000.0001) %MON trcstat_ptracer2A_mean       =   4.2239949829920301E-04
(PID.TID 0000.0001) %MON trcstat_ptracer2A_sd         =   2.1081780956062764E-03
(PID.TID 0000.0001) %MON trcstat_ptracer2A_del2       =   0.0000000000000000E+00
(PID.TID 0000.0001) %MON trcstat_ptracer2B_max        =   1.4897432985335206E-02
(PID.TID 0000.0001) %MON trcstat_ptracer2B_min        =   4.5647398478511638E-06
(PID.TID 0000.0001) %MON trcstat_ptracer2B_mean       =   4.0738617012066916E-04
(PID.TID 0000.0001) %MON trcstat_ptracer2B_sd         =   2.0403354113971059E-03
(PID.TID 0000.0001) %MON trcstat_ptracer2B_del2       =   0.0000000000000000E+00
(PID.TID 0000.0001) %MON trcstat_ptracer2C_max        =   1.4618380809437887E-02
(PID.TID 0000.0001) %MON trcstat_ptracer2C_min        =   4.5629008563087423E-06
(PID.TID 0000.0001) %MON trcstat_ptracer2C_mean       =   3.9182397883870000E-04
(PID.TID 0000.0001) %MON trcstat_ptracer2C_sd         =   1.9701936353142819E-03
(PID.TID 0000.0001) %MON trcstat_ptracer2C_del2       =   0.0000000000000000E+00
(PID.TID 0000.0001) %MON trcstat_ptracer2D_max        =   1.4297610956270383E-02
(PID.TID 0000.0001) %MON trcstat_ptracer2D_min        =   4.5608060911780597E-06
(PID.TID 0000.0001) %MON trcstat_ptracer2D_mean       =   3.7579667077090184E-04
(PID.TID 0000.0001) %MON trcstat_ptracer2D_sd         =   1.8979331296580851E-03
(PID.TID 0000.0001) %MON trcstat_ptracer2D_del2       =   0.0000000000000000E+00
(PID.TID 0000.0001) // =======================================================
(PID.TID 0000.0001) // End MONITOR ptracers field statistics
(PID.TID 0000.0001) // =======================================================
 Computing Diagnostic #    160  TRAC01       Counter:       1   Parms: SMR     MR      
 Computing Diagnostic #    174  TRAC02       Counter:       1   Parms: SMR     MR      
 Computing Diagnostic #    188  TRAC03       Counter:       1   Parms: SMR     MR      
 Computing Diagnostic #    202  TRAC04       Counter:       1   Parms: SMR     MR      
 Computing Diagnostic #    216  TRAC05       Counter:       1   Parms: SMR     MR      
 Computing Diagnostic #    230  TRAC06       Counter:       1   Parms: SMR     MR      
 Computing Diagnostic #    244  TRAC07       Counter:       1   Parms: SMR     MR      
 Computing Diagnostic #    258  TRAC08       Counter:       1   Parms: SMR     MR      
 Computing Diagnostic #    272  TRAC09       Counter:       1   Parms: SMR     MR      
 Computing Diagnostic #    286  TRAC10       Counter:       1   Parms: SMR     MR      
 Computing Diagnostic #    300  TRAC11       Counter:       1   Parms: SMR     MR      
 Computing Diagnostic #    314  TRAC12       Counter:       1   Parms: SMR     MR      
 Computing Diagnostic #    328  TRAC13       Counter:       1   Parms: SMR     MR      
 Computing Diagnostic #    342  TRAC14       Counter:       1   Parms: SMR     MR      
 Computing Diagnostic #    356  TRAC15       Counter:       1   Parms: SMR     MR      
 Computing Diagnostic #    370  TRAC16       Counter:       1   Parms: SMR     MR      
 Computing Diagnostic #    384  TRAC17       Counter:       1   Parms: SMR     MR      
 Computing Diagnostic #    398  TRAC18       Counter:       1   Parms: SMR     MR      
 Computing Diagnostic #    412  TRAC19       Counter:       1   Parms: SMR     MR      
 Computing Diagnostic #    426  TRAC20       Counter:       1   Parms: SMR     MR      
 Computing Diagnostic #    440  TRAC21       Counter:       1   Parms: SMR     MR      
 Computing Diagnostic #    454  TRAC22       Counter:       1   Parms: SMR     MR      
 Computing Diagnostic #    468  TRAC23       Counter:       1   Parms: SMR     MR      
 Computing Diagnostic #    482  TRAC24       Counter:       1   Parms: SMR     MR      
 Computing Diagnostic #    496  TRAC25       Counter:       1   Parms: SMR     MR      
 Computing Diagnostic #    510  TRAC26       Counter:       1   Parms: SMR     MR      
 Computing Diagnostic #    524  TRAC27       Counter:       1   Parms: SMR     MR      
 Computing Diagnostic #    538  TRAC28       Counter:       1   Parms: SMR     MR      
 Computing Diagnostic #    552  TRAC29       Counter:       1   Parms: SMR     MR      
 Computing Diagnostic #    566  TRAC30       Counter:       1   Parms: SMR     MR      
 Computing Diagnostic #    580  TRAC31       Counter:       1   Parms: SMR     MR      
 Computing Diagnostic #    594  TRAC32       Counter:       1   Parms: SMR     MR      
 Computing Diagnostic #    608  TRAC33       Counter:       1   Parms: SMR     MR      
 Computing Diagnostic #    622  TRAC34       Counter:       1   Parms: SMR     MR      
 Computing Diagnostic #    636  TRAC35       Counter:       1   Parms: SMR     MR      
 Computing Diagnostic #    650  TRAC36       Counter:       1   Parms: SMR     MR      
 Computing Diagnostic #    664  TRAC37       Counter:       1   Parms: SMR     MR      
 Computing Diagnostic #    678  TRAC38       Counter:       1   Parms: SMR     MR      
 Computing Diagnostic #    692  TRAC39       Counter:       1   Parms: SMR     MR      
 Computing Diagnostic #    706  TRAC40       Counter:       1   Parms: SMR     MR      
 Computing Diagnostic #    720  TRAC41       Counter:       1   Parms: SMR     MR      
 Computing Diagnostic #    734  TRAC42       Counter:       1   Parms: SMR     MR      
 Computing Diagnostic #    748  TRAC43       Counter:       1   Parms: SMR     MR      
 Computing Diagnostic #    762  TRAC44       Counter:       1   Parms: SMR     MR      
 Computing Diagnostic #    776  TRAC45       Counter:       1   Parms: SMR     MR      
 Computing Diagnostic #    790  TRAC46       Counter:       1   Parms: SMR     MR      
 Computing Diagnostic #    804  TRAC47       Counter:       1   Parms: SMR     MR      
 Computing Diagnostic #    818  TRAC48       Counter:       1   Parms: SMR     MR      
 Computing Diagnostic #    832  TRAC49       Counter:       1   Parms: SMR     MR      
 Computing Diagnostic #    846  TRAC50       Counter:       1   Parms: SMR     MR      
 Computing Diagnostic #    860  TRAC51       Counter:       1   Parms: SMR     MR      
 Computing Diagnostic #    874  TRAC52       Counter:       1   Parms: SMR     MR      
 Computing Diagnostic #    888  TRAC53       Counter:       1   Parms: SMR     MR      
 Computing Diagnostic #    902  TRAC54       Counter:       1   Parms: SMR     MR      
 Computing Diagnostic #    916  TRAC55       Counter:       1   Parms: SMR     MR      
 Computing Diagnostic #    930  TRAC56       Counter:       1   Parms: SMR     MR      
 Computing Diagnostic #    944  TRAC57       Counter:       1   Parms: SMR     MR      
 Computing Diagnostic #    958  TRAC58       Counter:       1   Parms: SMR     MR      
 Computing Diagnostic #    972  TRAC59       Counter:       1   Parms: SMR     MR      
 Computing Diagnostic #    986  TRAC60       Counter:       1   Parms: SMR     MR      
 Computing Diagnostic #   1000  TRAC61       Counter:       1   Parms: SMR     MR      
 Computing Diagnostic #   1014  TRAC62       Counter:       1   Parms: SMR     MR      
 Computing Diagnostic #   1028  TRAC63       Counter:       1   Parms: SMR     MR      
 Computing Diagnostic #   1042  TRAC64       Counter:       1   Parms: SMR     MR      
 Computing Diagnostic #   1056  TRAC65       Counter:       1   Parms: SMR     MR      
 Computing Diagnostic #   1070  TRAC66       Counter:       1   Parms: SMR     MR      
 Computing Diagnostic #   1084  TRAC67       Counter:       1   Parms: SMR     MR      
 Computing Diagnostic #   1098  TRAC68       Counter:       1   Parms: SMR     MR      
 Computing Diagnostic #   1112  TRAC69       Counter:       1   Parms: SMR     MR      
 Computing Diagnostic #   1126  TRAC70       Counter:       1   Parms: SMR     MR      
 Computing Diagnostic #   1140  TRAC71       Counter:       1   Parms: SMR     MR      
 Computing Diagnostic #   1154  TRAC72       Counter:       1   Parms: SMR     MR      
 Computing Diagnostic #   1168  TRAC73       Counter:       1   Parms: SMR     MR      
 Computing Diagnostic #   1182  TRAC74       Counter:       1   Parms: SMR     MR      
 Computing Diagnostic #   1196  TRAC75       Counter:       1   Parms: SMR     MR      
 Computing Diagnostic #   1210  TRAC76       Counter:       1   Parms: SMR     MR      
 Computing Diagnostic #   1224  TRAC77       Counter:       1   Parms: SMR     MR      
 Computing Diagnostic #   1238  TRAC78       Counter:       1   Parms: SMR     MR      
 Computing Diagnostic #   1252  TRAC79       Counter:       1   Parms: SMR     MR      
 Computing Diagnostic #   1266  TRAC80       Counter:       1   Parms: SMR     MR      
 Computing Diagnostic #   1280  TRAC81       Counter:       1   Parms: SMR     MR      
 Computing Diagnostic #   1294  TRAC82       Counter:       1   Parms: SMR     MR      
 Computing Diagnostic #   1308  TRAC83       Counter:       1   Parms: SMR     MR      
 Computing Diagnostic #   1322  TRAC84       Counter:       1   Parms: SMR     MR      
 Computing Diagnostic #   1336  TRAC85       Counter:       1   Parms: SMR     MR      
 Computing Diagnostic #   1350  TRAC86       Counter:       1   Parms: SMR     MR      
 Computing Diagnostic #   1364  TRAC87       Counter:       1   Parms: SMR     MR      
 Computing Diagnostic #   1378  TRAC88       Counter:       1   Parms: SMR     MR      
 Computing Diagnostic #   1392  TRAC89       Counter:       1   Parms: SMR     MR      
 Computing Diagnostic #   1406  TRAC90       Counter:       1   Parms: SMR     MR      
 Computing Diagnostic #   1420  TRAC91       Counter:       1   Parms: SMR     MR      
 Computing Diagnostic #   1434  TRAC92       Counter:       1   Parms: SMR     MR      
 Computing Diagnostic #   1448  TRAC93       Counter:       1   Parms: SMR     MR      
 Computing Diagnostic #   1462  TRAC94       Counter:       1   Parms: SMR     MR      
 Computing Diagnostic #   1476  TRAC95       Counter:       1   Parms: SMR     MR      
 Computing Diagnostic #   1490  TRAC96       Counter:       1   Parms: SMR     MR      
 Computing Diagnostic #   1504  TRAC97       Counter:       1   Parms: SMR     MR      
 Computing Diagnostic #   1518  TRAC98       Counter:       1   Parms: SMR     MR      
 Computing Diagnostic #   1532  TRAC99       Counter:       1   Parms: SMR     MR      
 Computing Diagnostic #   1546  TRAC0a       Counter:       1   Parms: SMR     MR      
 Computing Diagnostic #   1560  TRAC0b       Counter:       1   Parms: SMR     MR      
 Computing Diagnostic #   1574  TRAC0c       Counter:       1   Parms: SMR     MR      
 Computing Diagnostic #   1588  TRAC0d       Counter:       1   Parms: SMR     MR      
 Computing Diagnostic #   1602  TRAC0e       Counter:       1   Parms: SMR     MR      
 Computing Diagnostic #   1616  TRAC0f       Counter:       1   Parms: SMR     MR      
 Computing Diagnostic #   1630  TRAC0g       Counter:       1   Parms: SMR     MR      
 Computing Diagnostic #   1644  TRAC0h       Counter:       1   Parms: SMR     MR      
 Computing Diagnostic #   1658  TRAC0i       Counter:       1   Parms: SMR     MR      
 Computing Diagnostic #   1672  TRAC0j       Counter:       1   Parms: SMR     MR      
 Computing Diagnostic #   1686  TRAC0k       Counter:       1   Parms: SMR     MR      
 Computing Diagnostic #   1700  TRAC0l       Counter:       1   Parms: SMR     MR      
 Computing Diagnostic #   1714  TRAC0m       Counter:       1   Parms: SMR     MR      
 Computing Diagnostic #   1728  TRAC0n       Counter:       1   Parms: SMR     MR      
 Computing Diagnostic #    160  TRAC01       Counter:       1   Parms: SMR     MR      
 Computing Diagnostic #   1742  TRAC0o       Counter:       1   Parms: SMR     MR      
 Computing Diagnostic #   1770  TRAC0q       Counter:       1   Parms: SMR     MR      
 Computing Diagnostic #   1784  TRAC0r       Counter:       1   Parms: SMR     MR      
 Computing Diagnostic #   1798  TRAC0s       Counter:       1   Parms: SMR     MR      
 Computing Diagnostic #   1812  TRAC0t       Counter:       1   Parms: SMR     MR      
 Computing Diagnostic #   1826  TRAC0u       Counter:       1   Parms: SMR     MR      
 Computing Diagnostic #   1840  TRAC0v       Counter:       1   Parms: SMR     MR      
 Computing Diagnostic #   1854  TRAC0w       Counter:       1   Parms: SMR     MR      
 Computing Diagnostic #   1868  TRAC0x       Counter:       1   Parms: SMR     MR      
 Computing Diagnostic #   1882  TRAC0y       Counter:       1   Parms: SMR     MR      
 Computing Diagnostic #   1896  TRAC0z       Counter:       1   Parms: SMR     MR      
 Computing Diagnostic #   1910  TRAC0A       Counter:       1   Parms: SMR     MR      
 Computing Diagnostic #   1924  TRAC0B       Counter:       1   Parms: SMR     MR      
 Computing Diagnostic #   1938  TRAC0C       Counter:       1   Parms: SMR     MR      
 Computing Diagnostic #   1952  TRAC0D       Counter:       1   Parms: SMR     MR      
 Computing Diagnostic #   1966  TRAC0E       Counter:       1   Parms: SMR     MR      
 Computing Diagnostic #   1980  TRAC0F       Counter:       1   Parms: SMR     MR      
 Computing Diagnostic #   1994  TRAC0G       Counter:       1   Parms: SMR     MR      
 Computing Diagnostic #   2008  TRAC0H       Counter:       1   Parms: SMR     MR      
 Computing Diagnostic #   2022  TRAC0I       Counter:       1   Parms: SMR     MR      
 Computing Diagnostic #   2036  TRAC0J       Counter:       1   Parms: SMR     MR      
 Computing Diagnostic #   2050  TRAC0K       Counter:       1   Parms: SMR     MR      
 Computing Diagnostic #   2064  TRAC0L       Counter:       1   Parms: SMR     MR      
 Computing Diagnostic #   2078  TRAC0M       Counter:       1   Parms: SMR     MR      
 Computing Diagnostic #   2092  TRAC0N       Counter:       1   Parms: SMR     MR      
 Computing Diagnostic #    160  TRAC01       Counter:       1   Parms: SMR     MR      
 Computing Diagnostic #   2106  TRAC0O       Counter:       1   Parms: SMR     MR      
 Computing Diagnostic #   2134  TRAC0Q       Counter:       1   Parms: SMR     MR      
 Computing Diagnostic #   2148  TRAC0R       Counter:       1   Parms: SMR     MR      
 Computing Diagnostic #   2162  TRAC0S       Counter:       1   Parms: SMR     MR      
 Computing Diagnostic #   2176  TRAC0T       Counter:       1   Parms: SMR     MR      
 Computing Diagnostic #   2190  TRAC0U       Counter:       1   Parms: SMR     MR      
 Computing Diagnostic #   2204  TRAC0V       Counter:       1   Parms: SMR     MR      
 Computing Diagnostic #   2218  TRAC0W       Counter:       1   Parms: SMR     MR      
 Computing Diagnostic #   2232  TRAC0X       Counter:       1   Parms: SMR     MR      
 Computing Diagnostic #   2246  TRAC0Y       Counter:       1   Parms: SMR     MR      
 Computing Diagnostic #   2260  TRAC0Z       Counter:       1   Parms: SMR     MR      
 Computing Diagnostic #   2274  TRAC1a       Counter:       1   Parms: SMR     MR      
 Computing Diagnostic #   2288  TRAC1b       Counter:       1   Parms: SMR     MR      
 Computing Diagnostic #   2302  TRAC1c       Counter:       1   Parms: SMR     MR      
 Computing Diagnostic #   2316  TRAC1d       Counter:       1   Parms: SMR     MR      
 Computing Diagnostic #   2330  TRAC1e       Counter:       1   Parms: SMR     MR      
 Computing Diagnostic #   2344  TRAC1f       Counter:       1   Parms: SMR     MR      
 Computing Diagnostic #   2358  TRAC1g       Counter:       1   Parms: SMR     MR      
 Computing Diagnostic #   2372  TRAC1h       Counter:       1   Parms: SMR     MR      
 Computing Diagnostic #   2386  TRAC1i       Counter:       1   Parms: SMR     MR      
 Computing Diagnostic #   2400  TRAC1j       Counter:       1   Parms: SMR     MR      
 Computing Diagnostic #   2414  TRAC1k       Counter:       1   Parms: SMR     MR      
 Computing Diagnostic #   2428  TRAC1l       Counter:       1   Parms: SMR     MR      
 Computing Diagnostic #   2442  TRAC1m       Counter:       1   Parms: SMR     MR      
 Computing Diagnostic #   2456  TRAC1n       Counter:       1   Parms: SMR     MR      
 Computing Diagnostic #    300  TRAC11       Counter:       1   Parms: SMR     MR      
 Computing Diagnostic #   2470  TRAC1o       Counter:       1   Parms: SMR     MR      
 Computing Diagnostic #   2498  TRAC1q       Counter:       1   Parms: SMR     MR      
 Computing Diagnostic #   2512  TRAC1r       Counter:       1   Parms: SMR     MR      
 Computing Diagnostic #   2526  TRAC1s       Counter:       1   Parms: SMR     MR      
 Computing Diagnostic #   2540  TRAC1t       Counter:       1   Parms: SMR     MR      
 Computing Diagnostic #   2554  TRAC1u       Counter:       1   Parms: SMR     MR      
 Computing Diagnostic #   2568  TRAC1v       Counter:       1   Parms: SMR     MR      
 Computing Diagnostic #   2582  TRAC1w       Counter:       1   Parms: SMR     MR      
 Computing Diagnostic #   2596  TRAC1x       Counter:       1   Parms: SMR     MR      
 Computing Diagnostic #   2610  TRAC1y       Counter:       1   Parms: SMR     MR      
 Computing Diagnostic #   2624  TRAC1z       Counter:       1   Parms: SMR     MR      
 Computing Diagnostic #   2638  TRAC1A       Counter:       1   Parms: SMR     MR      
 Computing Diagnostic #   2652  TRAC1B       Counter:       1   Parms: SMR     MR      
 Computing Diagnostic #   2666  TRAC1C       Counter:       1   Parms: SMR     MR      
 Computing Diagnostic #   2680  TRAC1D       Counter:       1   Parms: SMR     MR      
 Computing Diagnostic #   2694  TRAC1E       Counter:       1   Parms: SMR     MR      
 Computing Diagnostic #   2708  TRAC1F       Counter:       1   Parms: SMR     MR      
 Computing Diagnostic #   2722  TRAC1G       Counter:       1   Parms: SMR     MR      
 Computing Diagnostic #   2736  TRAC1H       Counter:       1   Parms: SMR     MR      
 Computing Diagnostic #   2750  TRAC1I       Counter:       1   Parms: SMR     MR      
 Computing Diagnostic #   2764  TRAC1J       Counter:       1   Parms: SMR     MR      
 Computing Diagnostic #   2778  TRAC1K       Counter:       1   Parms: SMR     MR      
 Computing Diagnostic #   2792  TRAC1L       Counter:       1   Parms: SMR     MR      
 Computing Diagnostic #   2806  TRAC1M       Counter:       1   Parms: SMR     MR      
 Computing Diagnostic #   2820  TRAC1N       Counter:       1   Parms: SMR     MR      
 Computing Diagnostic #    300  TRAC11       Counter:       1   Parms: SMR     MR      
 Computing Diagnostic #   2834  TRAC1O       Counter:       1   Parms: SMR     MR      
 Computing Diagnostic #   2862  TRAC1Q       Counter:       1   Parms: SMR     MR      
 Computing Diagnostic #   2876  TRAC1R       Counter:       1   Parms: SMR     MR      
 Computing Diagnostic #   2890  TRAC1S       Counter:       1   Parms: SMR     MR      
 Computing Diagnostic #   2904  TRAC1T       Counter:       1   Parms: SMR     MR      
 Computing Diagnostic #   2918  TRAC1U       Counter:       1   Parms: SMR     MR      
 Computing Diagnostic #   2932  TRAC1V       Counter:       1   Parms: SMR     MR      
 Computing Diagnostic #   2946  TRAC1W       Counter:       1   Parms: SMR     MR      
 Computing Diagnostic #   2960  TRAC1X       Counter:       1   Parms: SMR     MR      
 Computing Diagnostic #   2974  TRAC1Y       Counter:       1   Parms: SMR     MR      
 Computing Diagnostic #   2988  TRAC1Z       Counter:       1   Parms: SMR     MR      
 Computing Diagnostic #   3002  TRAC2a       Counter:       1   Parms: SMR     MR      
 Computing Diagnostic #   3016  TRAC2b       Counter:       1   Parms: SMR     MR      
 Computing Diagnostic #   3030  TRAC2c       Counter:       1   Parms: SMR     MR      
 Computing Diagnostic #   3044  TRAC2d       Counter:       1   Parms: SMR     MR      
 Computing Diagnostic #   3058  TRAC2e       Counter:       1   Parms: SMR     MR      
 Computing Diagnostic #   3072  TRAC2f       Counter:       1   Parms: SMR     MR      
 Computing Diagnostic #   3086  TRAC2g       Counter:       1   Parms: SMR     MR      
 Computing Diagnostic #   3100  TRAC2h       Counter:       1   Parms: SMR     MR      
 Computing Diagnostic #   3114  TRAC2i       Counter:       1   Parms: SMR     MR      
 Computing Diagnostic #   3128  TRAC2j       Counter:       1   Parms: SMR     MR      
 Computing Diagnostic #   3142  TRAC2k       Counter:       1   Parms: SMR     MR      
 Computing Diagnostic #   3156  TRAC2l       Counter:       1   Parms: SMR     MR      
 Computing Diagnostic #   3170  TRAC2m       Counter:       1   Parms: SMR     MR      
 Computing Diagnostic #   3184  TRAC2n       Counter:       1   Parms: SMR     MR      
 Computing Diagnostic #    440  TRAC21       Counter:       1   Parms: SMR     MR      
 Computing Diagnostic #   3198  TRAC2o       Counter:       1   Parms: SMR     MR      
 Computing Diagnostic #   3226  TRAC2q       Counter:       1   Parms: SMR     MR      
 Computing Diagnostic #   3240  TRAC2r       Counter:       1   Parms: SMR     MR      
 Computing Diagnostic #   3254  TRAC2s       Counter:       1   Parms: SMR     MR      
 Computing Diagnostic #   3268  TRAC2t       Counter:       1   Parms: SMR     MR      
 Computing Diagnostic #   3282  TRAC2u       Counter:       1   Parms: SMR     MR      
 Computing Diagnostic #   3296  TRAC2v       Counter:       1   Parms: SMR     MR      
 Computing Diagnostic #   3310  TRAC2w       Counter:       1   Parms: SMR     MR      
 Computing Diagnostic #   3324  TRAC2x       Counter:       1   Parms: SMR     MR      
 Computing Diagnostic #   3338  TRAC2y       Counter:       1   Parms: SMR     MR      
 Computing Diagnostic #   3352  TRAC2z       Counter:       1   Parms: SMR     MR      
 Computing Diagnostic #   3366  TRAC2A       Counter:       1   Parms: SMR     MR      
 Computing Diagnostic #   3380  TRAC2B       Counter:       1   Parms: SMR     MR      
 Computing Diagnostic #   3394  TRAC2C       Counter:       1   Parms: SMR     MR      
 Computing Diagnostic #   3408  TRAC2D       Counter:       1   Parms: SMR     MR      
 Computing Diagnostic #   3430  PAR01        Counter:       1   Parms: SM P    MR      
 Computing Diagnostic #   3423  PP           Counter:       1   Parms: SM P    MR      
 Computing Diagnostic #   3424  Nfix         Counter:       1   Parms: SM P    MR      
 Computing Diagnostic #   3425  Denit        Counter:       1   Parms: SM P    MR      
 Compute Stats, Diag. #   3423  PP        vol(   0 ): 3.081E+13  Parms: SM P    MR      
 Compute Stats, Diag. #   3424  Nfix      vol(   0 ): 3.081E+13  Parms: SM P    MR      
 Compute Stats, Diag. #   3425  Denit     vol(   0 ): 3.081E+13  Parms: SM P    MR      
(PID.TID 0000.0001) // =======================================================
(PID.TID 0000.0001) // Begin MONITOR EXF statistics
(PID.TID 0000.0001) // =======================================================
(PID.TID 0000.0001) %MON exf_tsnumber                 =                     1
(PID.TID 0000.0001) %MON exf_time_sec                 =   3.6000000000000000E+03
(PID.TID 0000.0001) %MON exf_ustress_max              =   0.0000000000000000E+00
(PID.TID 0000.0001) %MON exf_ustress_min              =   0.0000000000000000E+00
(PID.TID 0000.0001) %MON exf_ustress_mean             =   0.0000000000000000E+00
(PID.TID 0000.0001) %MON exf_ustress_sd               =   0.0000000000000000E+00
(PID.TID 0000.0001) %MON exf_ustress_del2             =   0.0000000000000000E+00
(PID.TID 0000.0001) %MON exf_vstress_max              =   0.0000000000000000E+00
(PID.TID 0000.0001) %MON exf_vstress_min              =   0.0000000000000000E+00
(PID.TID 0000.0001) %MON exf_vstress_mean             =   0.0000000000000000E+00
(PID.TID 0000.0001) %MON exf_vstress_sd               =   0.0000000000000000E+00
(PID.TID 0000.0001) %MON exf_vstress_del2             =   0.0000000000000000E+00
(PID.TID 0000.0001) %MON exf_hflux_max                =   0.0000000000000000E+00
(PID.TID 0000.0001) %MON exf_hflux_min                =   0.0000000000000000E+00
(PID.TID 0000.0001) %MON exf_hflux_mean               =   0.0000000000000000E+00
(PID.TID 0000.0001) %MON exf_hflux_sd                 =   0.0000000000000000E+00
(PID.TID 0000.0001) %MON exf_hflux_del2               =   0.0000000000000000E+00
(PID.TID 0000.0001) %MON exf_sflux_max                =   0.0000000000000000E+00
(PID.TID 0000.0001) %MON exf_sflux_min                =   0.0000000000000000E+00
(PID.TID 0000.0001) %MON exf_sflux_mean               =   0.0000000000000000E+00
(PID.TID 0000.0001) %MON exf_sflux_sd                 =   0.0000000000000000E+00
(PID.TID 0000.0001) %MON exf_sflux_del2               =   0.0000000000000000E+00
(PID.TID 0000.0001) %MON exf_uwind_max                =   0.0000000000000000E+00
(PID.TID 0000.0001) %MON exf_uwind_min                =   0.0000000000000000E+00
(PID.TID 0000.0001) %MON exf_uwind_mean               =   0.0000000000000000E+00
(PID.TID 0000.0001) %MON exf_uwind_sd                 =   0.0000000000000000E+00
(PID.TID 0000.0001) %MON exf_uwind_del2               =   0.0000000000000000E+00
(PID.TID 0000.0001) %MON exf_vwind_max                =   0.0000000000000000E+00
(PID.TID 0000.0001) %MON exf_vwind_min                =   0.0000000000000000E+00
(PID.TID 0000.0001) %MON exf_vwind_mean               =   0.0000000000000000E+00
(PID.TID 0000.0001) %MON exf_vwind_sd                 =   0.0000000000000000E+00
(PID.TID 0000.0001) %MON exf_vwind_del2               =   0.0000000000000000E+00
(PID.TID 0000.0001) %MON exf_wspeed_max               =   0.0000000000000000E+00
(PID.TID 0000.0001) %MON exf_wspeed_min               =   0.0000000000000000E+00
(PID.TID 0000.0001) %MON exf_wspeed_mean              =   0.0000000000000000E+00
(PID.TID 0000.0001) %MON exf_wspeed_sd                =   0.0000000000000000E+00
(PID.TID 0000.0001) %MON exf_wspeed_del2              =   0.0000000000000000E+00
(PID.TID 0000.0001) %MON exf_evap_max                 =   0.0000000000000000E+00
(PID.TID 0000.0001) %MON exf_evap_min                 =   0.0000000000000000E+00
(PID.TID 0000.0001) %MON exf_evap_mean                =   0.0000000000000000E+00
(PID.TID 0000.0001) %MON exf_evap_sd                  =   0.0000000000000000E+00
(PID.TID 0000.0001) %MON exf_evap_del2                =   0.0000000000000000E+00
(PID.TID 0000.0001) // =======================================================
(PID.TID 0000.0001) // End MONITOR EXF statistics
(PID.TID 0000.0001) // =======================================================
 EXTERNAL_FIELDS_LOAD,         1 : iP,iLd,i0,i1=   12    1   12    1 ; Wght=  0.4986111111  0.5013888889
(PID.TID 0000.0001) // =======================================================
(PID.TID 0000.0001) // Begin MONITOR dynamic field statistics
(PID.TID 0000.0001) // =======================================================
(PID.TID 0000.0001) %MON time_tsnumber                =                     2
(PID.TID 0000.0001) %MON time_secondsf                =   7.2000000000000000E+03
(PID.TID 0000.0001) %MON dynstat_eta_max              =   0.0000000000000000E+00
(PID.TID 0000.0001) %MON dynstat_eta_min              =   0.0000000000000000E+00
(PID.TID 0000.0001) %MON dynstat_eta_mean             =   0.0000000000000000E+00
(PID.TID 0000.0001) %MON dynstat_eta_sd               =   0.0000000000000000E+00
(PID.TID 0000.0001) %MON dynstat_eta_del2             =   0.0000000000000000E+00
(PID.TID 0000.0001) %MON dynstat_uvel_max             =   0.0000000000000000E+00
(PID.TID 0000.0001) %MON dynstat_uvel_min             =   0.0000000000000000E+00
(PID.TID 0000.0001) %MON dynstat_uvel_mean            =   0.0000000000000000E+00
(PID.TID 0000.0001) %MON dynstat_uvel_sd              =   0.0000000000000000E+00
(PID.TID 0000.0001) %MON dynstat_uvel_del2            =   0.0000000000000000E+00
(PID.TID 0000.0001) %MON dynstat_vvel_max             =   0.0000000000000000E+00
(PID.TID 0000.0001) %MON dynstat_vvel_min             =   0.0000000000000000E+00
(PID.TID 0000.0001) %MON dynstat_vvel_mean            =   0.0000000000000000E+00
(PID.TID 0000.0001) %MON dynstat_vvel_sd              =   0.0000000000000000E+00
(PID.TID 0000.0001) %MON dynstat_vvel_del2            =   0.0000000000000000E+00
(PID.TID 0000.0001) %MON dynstat_wvel_max             =   0.0000000000000000E+00
(PID.TID 0000.0001) %MON dynstat_wvel_min             =   0.0000000000000000E+00
(PID.TID 0000.0001) %MON dynstat_wvel_mean            =   0.0000000000000000E+00
(PID.TID 0000.0001) %MON dynstat_wvel_sd              =   0.0000000000000000E+00
(PID.TID 0000.0001) %MON dynstat_wvel_del2            =   0.0000000000000000E+00
(PID.TID 0000.0001) %MON dynstat_theta_max            =   8.2719359074106933E+00
(PID.TID 0000.0001) %MON dynstat_theta_min            =   1.5167012383938983E+00
(PID.TID 0000.0001) %MON dynstat_theta_mean           =   2.8238790423732119E+00
(PID.TID 0000.0001) %MON dynstat_theta_sd             =   1.3642220709211459E+00
(PID.TID 0000.0001) %MON dynstat_theta_del2           =   0.0000000000000000E+00
(PID.TID 0000.0001) %MON dynstat_salt_max             =   3.5000000000000000E+01
(PID.TID 0000.0001) %MON dynstat_salt_min             =   3.5000000000000000E+01
(PID.TID 0000.0001) %MON dynstat_salt_mean            =   3.4999999999999986E+01
(PID.TID 0000.0001) %MON dynstat_salt_sd              =   1.4210854715202004E-14
(PID.TID 0000.0001) %MON dynstat_salt_del2            =   0.0000000000000000E+00
(PID.TID 0000.0001) %MON dynstat_sst_max              =   8.2719359074106933E+00
(PID.TID 0000.0001) %MON dynstat_sst_min              =   8.2719359074106933E+00
(PID.TID 0000.0001) %MON dynstat_sst_mean             =   8.2719359074106933E+00
(PID.TID 0000.0001) %MON dynstat_sst_sd               =   0.0000000000000000E+00
(PID.TID 0000.0001) %MON dynstat_sst_del2             =   0.0000000000000000E+00
(PID.TID 0000.0001) %MON dynstat_sss_max              =   3.5000000000000000E+01
(PID.TID 0000.0001) %MON dynstat_sss_min              =   3.5000000000000000E+01
(PID.TID 0000.0001) %MON dynstat_sss_mean             =   3.5000000000000000E+01
(PID.TID 0000.0001) %MON dynstat_sss_sd               =   0.0000000000000000E+00
(PID.TID 0000.0001) %MON dynstat_sss_del2             =   0.0000000000000000E+00
(PID.TID 0000.0001) %MON forcing_qnet_max             =   0.0000000000000000E+00
(PID.TID 0000.0001) %MON forcing_qnet_min             =   0.0000000000000000E+00
(PID.TID 0000.0001) %MON forcing_qnet_mean            =   0.0000000000000000E+00
(PID.TID 0000.0001) %MON forcing_qnet_sd              =   0.0000000000000000E+00
(PID.TID 0000.0001) %MON forcing_qnet_del2            =   0.0000000000000000E+00
(PID.TID 0000.0001) %MON forcing_qsw_max              =   0.0000000000000000E+00
(PID.TID 0000.0001) %MON forcing_qsw_min              =   0.0000000000000000E+00
(PID.TID 0000.0001) %MON forcing_qsw_mean             =   0.0000000000000000E+00
(PID.TID 0000.0001) %MON forcing_qsw_sd               =   0.0000000000000000E+00
(PID.TID 0000.0001) %MON forcing_qsw_del2             =   0.0000000000000000E+00
(PID.TID 0000.0001) %MON forcing_empmr_max            =   0.0000000000000000E+00
(PID.TID 0000.0001) %MON forcing_empmr_min            =   0.0000000000000000E+00
(PID.TID 0000.0001) %MON forcing_empmr_mean           =   0.0000000000000000E+00
(PID.TID 0000.0001) %MON forcing_empmr_sd             =   0.0000000000000000E+00
(PID.TID 0000.0001) %MON forcing_empmr_del2           =   0.0000000000000000E+00
(PID.TID 0000.0001) %MON forcing_fu_max               =   2.2646569665935306E+00
(PID.TID 0000.0001) %MON forcing_fu_min               =   2.2646569665935306E+00
(PID.TID 0000.0001) %MON forcing_fu_mean              =   2.2646569665935306E+00
(PID.TID 0000.0001) %MON forcing_fu_sd                =   0.0000000000000000E+00
(PID.TID 0000.0001) %MON forcing_fu_del2              =   0.0000000000000000E+00
(PID.TID 0000.0001) %MON forcing_fv_max               =  -4.1312500250836215E-01
(PID.TID 0000.0001) %MON forcing_fv_min               =  -4.1312500250836215E-01
(PID.TID 0000.0001) %MON forcing_fv_mean              =  -4.1312500250836215E-01
(PID.TID 0000.0001) %MON forcing_fv_sd                =   0.0000000000000000E+00
(PID.TID 0000.0001) %MON forcing_fv_del2              =   0.0000000000000000E+00
(PID.TID 0000.0001) %MON advcfl_uvel_max              =   0.0000000000000000E+00
(PID.TID 0000.0001) %MON advcfl_vvel_max              =   0.0000000000000000E+00
(PID.TID 0000.0001) %MON advcfl_wvel_max              =   0.0000000000000000E+00
(PID.TID 0000.0001) %MON advcfl_W_hf_max              =   0.0000000000000000E+00
(PID.TID 0000.0001) %MON pe_b_mean                    =   0.0000000000000000E+00
(PID.TID 0000.0001) %MON ke_max                       =   0.0000000000000000E+00
(PID.TID 0000.0001) %MON ke_mean                      =   0.0000000000000000E+00
(PID.TID 0000.0001) %MON ke_vol                       =   3.0811817830111180E+13
(PID.TID 0000.0001) %MON vort_r_min                   =   0.0000000000000000E+00
(PID.TID 0000.0001) %MON vort_r_max                   =   0.0000000000000000E+00
(PID.TID 0000.0001) %MON vort_a_mean                  =  -1.0312619976227577E-04
(PID.TID 0000.0001) %MON vort_a_sd                    =   2.8760747774580336E-12
(PID.TID 0000.0001) %MON vort_p_mean                  =  -1.0312619976227577E-04
(PID.TID 0000.0001) %MON vort_p_sd                    =   2.8760747774580336E-12
(PID.TID 0000.0001) %MON surfExpan_theta_mean         =   0.0000000000000000E+00
(PID.TID 0000.0001) %MON surfExpan_salt_mean          =   0.0000000000000000E+00
(PID.TID 0000.0001) // =======================================================
(PID.TID 0000.0001) // End MONITOR dynamic field statistics
(PID.TID 0000.0001) // =======================================================
(PID.TID 0000.0001) // =======================================================
(PID.TID 0000.0001) // Begin MONITOR ptracer field statistics
(PID.TID 0000.0001) // =======================================================
(PID.TID 0000.0001) %MON trcstat_ptracer01_max        =   2.2359128925196337E+03
(PID.TID 0000.0001) %MON trcstat_ptracer01_min        =   2.0732447534486332E+03
(PID.TID 0000.0001) %MON trcstat_ptracer01_mean       =   2.2089821676300307E+03
(PID.TID 0000.0001) %MON trcstat_ptracer01_sd         =   4.0008042510291958E+01
(PID.TID 0000.0001) %MON trcstat_ptracer01_del2       =   0.0000000000000000E+00
(PID.TID 0000.0001) %MON trcstat_ptracer02_max        =   3.5288481594637872E-01
(PID.TID 0000.0001) %MON trcstat_ptracer02_min        =   2.7627762358551374E-05
(PID.TID 0000.0001) %MON trcstat_ptracer02_mean       =   6.0795948889922919E-03
(PID.TID 0000.0001) %MON trcstat_ptracer02_sd         =   4.1860070915041979E-02
(PID.TID 0000.0001) %MON trcstat_ptracer02_del2       =   0.0000000000000000E+00
(PID.TID 0000.0001) %MON trcstat_ptracer03_max        =   2.5074730640842530E-01
(PID.TID 0000.0001) %MON trcstat_ptracer03_min        =   6.6205728935681267E-04
(PID.TID 0000.0001) %MON trcstat_ptracer03_mean       =   1.7335487201782414E-02
(PID.TID 0000.0001) %MON trcstat_ptracer03_sd         =   3.6705422008744631E-02
(PID.TID 0000.0001) %MON trcstat_ptracer03_del2       =   0.0000000000000000E+00
(PID.TID 0000.0001) %MON trcstat_ptracer04_max        =   3.4238577356708710E+01
(PID.TID 0000.0001) %MON trcstat_ptracer04_min        =   1.4585285758059957E+01
(PID.TID 0000.0001) %MON trcstat_ptracer04_mean       =   2.9891980937160440E+01
(PID.TID 0000.0001) %MON trcstat_ptracer04_sd         =   3.8830132948193516E+00
(PID.TID 0000.0001) %MON trcstat_ptracer04_del2       =   0.0000000000000000E+00
(PID.TID 0000.0001) %MON trcstat_ptracer05_max        =   2.3348088436816901E+00
(PID.TID 0000.0001) %MON trcstat_ptracer05_min        =   1.1957807765654551E+00
(PID.TID 0000.0001) %MON trcstat_ptracer05_mean       =   2.0209385432917100E+00
(PID.TID 0000.0001) %MON trcstat_ptracer05_sd         =   2.4246519071564704E-01
(PID.TID 0000.0001) %MON trcstat_ptracer05_del2       =   0.0000000000000000E+00
(PID.TID 0000.0001) %MON trcstat_ptracer06_max        =   9.3254117096563789E+01
(PID.TID 0000.0001) %MON trcstat_ptracer06_min        =   3.4136378003897834E+00
(PID.TID 0000.0001) %MON trcstat_ptracer06_mean       =   6.1182582435664045E+01
(PID.TID 0000.0001) %MON trcstat_ptracer06_sd         =   2.6240938636508972E+01
(PID.TID 0000.0001) %MON trcstat_ptracer06_del2       =   0.0000000000000000E+00
(PID.TID 0000.0001) %MON trcstat_ptracer07_max        =   9.2535537526748613E-04
(PID.TID 0000.0001) %MON trcstat_ptracer07_min        =   2.6833485596999608E-06
(PID.TID 0000.0001) %MON trcstat_ptracer07_mean       =   6.3721097519543063E-04
(PID.TID 0000.0001) %MON trcstat_ptracer07_sd         =   1.9802268311638042E-04
(PID.TID 0000.0001) %MON trcstat_ptracer07_del2       =   0.0000000000000000E+00
(PID.TID 0000.0001) %MON trcstat_ptracer08_max        =   1.2565603922125776E+01
(PID.TID 0000.0001) %MON trcstat_ptracer08_min        =   8.1216183178324709E-07
(PID.TID 0000.0001) %MON trcstat_ptracer08_mean       =   5.3415262630631344E-01
(PID.TID 0000.0001) %MON trcstat_ptracer08_sd         =   1.9397212715705938E+00
(PID.TID 0000.0001) %MON trcstat_ptracer08_del2       =   0.0000000000000000E+00
(PID.TID 0000.0001) %MON trcstat_ptracer09_max        =   1.6754917454299687E+00
(PID.TID 0000.0001) %MON trcstat_ptracer09_min        =   1.1348221021668228E-07
(PID.TID 0000.0001) %MON trcstat_ptracer09_mean       =   7.1225119321348798E-02
(PID.TID 0000.0001) %MON trcstat_ptracer09_sd         =   2.5864506075472210E-01
(PID.TID 0000.0001) %MON trcstat_ptracer09_del2       =   0.0000000000000000E+00
(PID.TID 0000.0001) %MON trcstat_ptracer10_max        =   1.0471379942000683E-01
(PID.TID 0000.0001) %MON trcstat_ptracer10_min        =   6.8829018211577875E-09
(PID.TID 0000.0001) %MON trcstat_ptracer10_mean       =   4.4512877208222690E-03
(PID.TID 0000.0001) %MON trcstat_ptracer10_sd         =   1.6164411946570881E-02
(PID.TID 0000.0001) %MON trcstat_ptracer10_del2       =   0.0000000000000000E+00
(PID.TID 0000.0001) %MON trcstat_ptracer11_max        =   1.0472219429287739E-04
(PID.TID 0000.0001) %MON trcstat_ptracer11_min        =   7.2849640355341596E-12
(PID.TID 0000.0001) %MON trcstat_ptracer11_mean       =   4.4518236281938698E-06
(PID.TID 0000.0001) %MON trcstat_ptracer11_sd         =   1.6166107170890439E-05
(PID.TID 0000.0001) %MON trcstat_ptracer11_del2       =   0.0000000000000000E+00
(PID.TID 0000.0001) %MON trcstat_ptracer12_max        =   1.2593020857570956E+00
(PID.TID 0000.0001) %MON trcstat_ptracer12_min        =   4.6412663361068786E-02
(PID.TID 0000.0001) %MON trcstat_ptracer12_mean       =   4.6850351828459275E-01
(PID.TID 0000.0001) %MON trcstat_ptracer12_sd         =   4.4372069785972484E-01
(PID.TID 0000.0001) %MON trcstat_ptracer12_del2       =   0.0000000000000000E+00
(PID.TID 0000.0001) %MON trcstat_ptracer13_max        =   1.6790712819250855E-01
(PID.TID 0000.0001) %MON trcstat_ptracer13_min        =   6.1903865175538522E-03
(PID.TID 0000.0001) %MON trcstat_ptracer13_mean       =   6.2469886994756474E-02
(PID.TID 0000.0001) %MON trcstat_ptracer13_sd         =   5.9162112940425733E-02
(PID.TID 0000.0001) %MON trcstat_ptracer13_del2       =   0.0000000000000000E+00
(PID.TID 0000.0001) %MON trcstat_ptracer14_max        =   1.0494184185461096E-02
(PID.TID 0000.0001) %MON trcstat_ptracer14_min        =   3.8677221785259243E-04
(PID.TID 0000.0001) %MON trcstat_ptracer14_mean       =   3.9041985020646830E-03
(PID.TID 0000.0001) %MON trcstat_ptracer14_sd         =   3.6976759876788563E-03
(PID.TID 0000.0001) %MON trcstat_ptracer14_del2       =   0.0000000000000000E+00
(PID.TID 0000.0001) %MON trcstat_ptracer15_max        =   5.9339213306743588E-01
(PID.TID 0000.0001) %MON trcstat_ptracer15_min        =   7.7515738284669164E-02
(PID.TID 0000.0001) %MON trcstat_ptracer15_mean       =   3.0107906039282262E-01
(PID.TID 0000.0001) %MON trcstat_ptracer15_sd         =   1.6089111063036937E-01
(PID.TID 0000.0001) %MON trcstat_ptracer15_del2       =   0.0000000000000000E+00
(PID.TID 0000.0001) %MON trcstat_ptracer16_max        =   1.0494208029592313E-05
(PID.TID 0000.0001) %MON trcstat_ptracer16_min        =   3.8702818753065537E-07
(PID.TID 0000.0001) %MON trcstat_ptracer16_mean       =   3.9045386377603086E-06
(PID.TID 0000.0001) %MON trcstat_ptracer16_sd         =   3.6975840736979536E-06
(PID.TID 0000.0001) %MON trcstat_ptracer16_del2       =   0.0000000000000000E+00
(PID.TID 0000.0001) %MON trcstat_ptracer17_max        =   8.2636481502154344E-02
(PID.TID 0000.0001) %MON trcstat_ptracer17_min        =   5.6893760713473511E-03
(PID.TID 0000.0001) %MON trcstat_ptracer17_mean       =   5.5158457882053931E-02
(PID.TID 0000.0001) %MON trcstat_ptracer17_sd         =   1.7397329239282722E-02
(PID.TID 0000.0001) %MON trcstat_ptracer17_del2       =   0.0000000000000000E+00
(PID.TID 0000.0001) %MON trcstat_ptracer18_max        =   2.3510737841358118E+03
(PID.TID 0000.0001) %MON trcstat_ptracer18_min        =   2.2764343751926322E+03
(PID.TID 0000.0001) %MON trcstat_ptracer18_mean       =   2.3233199549607170E+03
(PID.TID 0000.0001) %MON trcstat_ptracer18_sd         =   2.5000506826791412E+01
(PID.TID 0000.0001) %MON trcstat_ptracer18_del2       =   0.0000000000000000E+00
(PID.TID 0000.0001) %MON trcstat_ptracer19_max        =   2.0770450662275778E+01
(PID.TID 0000.0001) %MON trcstat_ptracer19_min        =   4.3193964534518967E+00
(PID.TID 0000.0001) %MON trcstat_ptracer19_mean       =   5.0286364839993674E+00
(PID.TID 0000.0001) %MON trcstat_ptracer19_sd         =   1.0402575291218583E+00
(PID.TID 0000.0001) %MON trcstat_ptracer19_del2       =   0.0000000000000000E+00
(PID.TID 0000.0001) %MON trcstat_ptracer20_max        =   5.4902526166897288E-02
(PID.TID 0000.0001) %MON trcstat_ptracer20_min        =   1.5215787620782394E-05
(PID.TID 0000.0001) %MON trcstat_ptracer20_mean       =   1.9078159614754251E-03
(PID.TID 0000.0001) %MON trcstat_ptracer20_sd         =   9.4827507382697195E-03
(PID.TID 0000.0001) %MON trcstat_ptracer20_del2       =   0.0000000000000000E+00
(PID.TID 0000.0001) %MON trcstat_ptracer21_max        =   5.4902853968055103E-02
(PID.TID 0000.0001) %MON trcstat_ptracer21_min        =   1.5215787676058680E-05
(PID.TID 0000.0001) %MON trcstat_ptracer21_mean       =   1.9078257461700519E-03
(PID.TID 0000.0001) %MON trcstat_ptracer21_sd         =   9.4827477243552387E-03
(PID.TID 0000.0001) %MON trcstat_ptracer21_del2       =   0.0000000000000000E+00
(PID.TID 0000.0001) %MON trcstat_ptracer22_max        =   5.4903125288917297E-02
(PID.TID 0000.0001) %MON trcstat_ptracer22_min        =   1.5215787764419934E-05
(PID.TID 0000.0001) %MON trcstat_ptracer22_mean       =   1.9078338469663428E-03
(PID.TID 0000.0001) %MON trcstat_ptracer22_sd         =   9.4827133582920144E-03
(PID.TID 0000.0001) %MON trcstat_ptracer22_del2       =   0.0000000000000000E+00
(PID.TID 0000.0001) %MON trcstat_ptracer23_max        =   5.4903349843227658E-02
(PID.TID 0000.0001) %MON trcstat_ptracer23_min        =   1.5215787909612011E-05
(PID.TID 0000.0001) %MON trcstat_ptracer23_mean       =   1.9078405542608916E-03
(PID.TID 0000.0001) %MON trcstat_ptracer23_sd         =   9.4826403825739834E-03
(PID.TID 0000.0001) %MON trcstat_ptracer23_del2       =   0.0000000000000000E+00
(PID.TID 0000.0001) %MON trcstat_ptracer24_max        =   5.4903449844855567E-03
(PID.TID 0000.0001) %MON trcstat_ptracer24_min        =   1.5215788154913844E-06
(PID.TID 0000.0001) %MON trcstat_ptracer24_mean       =   1.9078435446847133E-04
(PID.TID 0000.0001) %MON trcstat_ptracer24_sd         =   9.4825038997854510E-04
(PID.TID 0000.0001) %MON trcstat_ptracer24_del2       =   0.0000000000000000E+00
(PID.TID 0000.0001) %MON trcstat_ptracer25_max        =   5.4903449844855574E-02
(PID.TID 0000.0001) %MON trcstat_ptracer25_min        =   1.5215788154913796E-05
(PID.TID 0000.0001) %MON trcstat_ptracer25_mean       =   1.9078435446847133E-03
(PID.TID 0000.0001) %MON trcstat_ptracer25_sd         =   9.4825038997854542E-03
(PID.TID 0000.0001) %MON trcstat_ptracer25_del2       =   0.0000000000000000E+00
(PID.TID 0000.0001) %MON trcstat_ptracer26_max        =   6.1136931534028029E-02
(PID.TID 0000.0001) %MON trcstat_ptracer26_min        =   1.5215789503839050E-05
(PID.TID 0000.0001) %MON trcstat_ptracer26_mean       =   1.9942500186487843E-03
(PID.TID 0000.0001) %MON trcstat_ptracer26_sd         =   9.9694807443120054E-03
(PID.TID 0000.0001) %MON trcstat_ptracer26_del2       =   0.0000000000000000E+00
(PID.TID 0000.0001) %MON trcstat_ptracer27_max        =   5.4902933268771150E-03
(PID.TID 0000.0001) %MON trcstat_ptracer27_min        =   1.5215788580516306E-06
(PID.TID 0000.0001) %MON trcstat_ptracer27_mean       =   1.9078279159988627E-04
(PID.TID 0000.0001) %MON trcstat_ptracer27_sd         =   9.4822060884719472E-04
(PID.TID 0000.0001) %MON trcstat_ptracer27_del2       =   0.0000000000000000E+00
(PID.TID 0000.0001) %MON trcstat_ptracer28_max        =   5.4902933268771166E-02
(PID.TID 0000.0001) %MON trcstat_ptracer28_min        =   1.5215788580516258E-05
(PID.TID 0000.0001) %MON trcstat_ptracer28_mean       =   1.9078279159988629E-03
(PID.TID 0000.0001) %MON trcstat_ptracer28_sd         =   9.4822060884719502E-03
(PID.TID 0000.0001) %MON trcstat_ptracer28_del2       =   0.0000000000000000E+00
(PID.TID 0000.0001) %MON trcstat_ptracer29_max        =   6.0967839718293795E-02
(PID.TID 0000.0001) %MON trcstat_ptracer29_min        =   1.5215790535491068E-05
(PID.TID 0000.0001) %MON trcstat_ptracer29_mean       =   1.9916926164708897E-03
(PID.TID 0000.0001) %MON trcstat_ptracer29_sd         =   9.9544246426809917E-03
(PID.TID 0000.0001) %MON trcstat_ptracer29_del2       =   0.0000000000000000E+00
(PID.TID 0000.0001) %MON trcstat_ptracer30_max        =   5.4903190654608343E-03
(PID.TID 0000.0001) %MON trcstat_ptracer30_min        =   1.5215789337039694E-06
(PID.TID 0000.0001) %MON trcstat_ptracer30_mean       =   1.9078356624964698E-04
(PID.TID 0000.0001) %MON trcstat_ptracer30_sd         =   9.4819501057934565E-04
(PID.TID 0000.0001) %MON trcstat_ptracer30_del2       =   0.0000000000000000E+00
(PID.TID 0000.0001) %MON trcstat_ptracer31_max        =   5.4903190654608351E-02
(PID.TID 0000.0001) %MON trcstat_ptracer31_min        =   1.5215789337039649E-05
(PID.TID 0000.0001) %MON trcstat_ptracer31_mean       =   1.9078356624964699E-03
(PID.TID 0000.0001) %MON trcstat_ptracer31_sd         =   9.4819501057934567E-03
(PID.TID 0000.0001) %MON trcstat_ptracer31_del2       =   0.0000000000000000E+00
(PID.TID 0000.0001) %MON trcstat_ptracer32_max        =   6.0074602223925695E-02
(PID.TID 0000.0001) %MON trcstat_ptracer32_min        =   1.5215792292737645E-05
(PID.TID 0000.0001) %MON trcstat_ptracer32_mean       =   1.9832953840362632E-03
(PID.TID 0000.0001) %MON trcstat_ptracer32_sd         =   9.9053286091218551E-03
(PID.TID 0000.0001) %MON trcstat_ptracer32_del2       =   0.0000000000000000E+00
(PID.TID 0000.0001) %MON trcstat_ptracer33_max        =   5.4903403571449506E-03
(PID.TID 0000.0001) %MON trcstat_ptracer33_min        =   1.5215790710120797E-06
(PID.TID 0000.0001) %MON trcstat_ptracer33_mean       =   1.9078420898912006E-04
(PID.TID 0000.0001) %MON trcstat_ptracer33_sd         =   9.4815688794326516E-04
(PID.TID 0000.0001) %MON trcstat_ptracer33_del2       =   0.0000000000000000E+00
(PID.TID 0000.0001) %MON trcstat_ptracer34_max        =   5.4903403571449509E-02
(PID.TID 0000.0001) %MON trcstat_ptracer34_min        =   1.5215790710120749E-05
(PID.TID 0000.0001) %MON trcstat_ptracer34_mean       =   1.9078420898912007E-03
(PID.TID 0000.0001) %MON trcstat_ptracer34_sd         =   9.4815688794326509E-03
(PID.TID 0000.0001) %MON trcstat_ptracer34_del2       =   0.0000000000000000E+00
(PID.TID 0000.0001) %MON trcstat_ptracer35_max        =   5.9264260026676154E-02
(PID.TID 0000.0001) %MON trcstat_ptracer35_min        =   1.5215795365003735E-05
(PID.TID 0000.0001) %MON trcstat_ptracer35_mean       =   1.9754164422186174E-03
(PID.TID 0000.0001) %MON trcstat_ptracer35_sd         =   9.8593602050347888E-03
(PID.TID 0000.0001) %MON trcstat_ptracer35_del2       =   0.0000000000000000E+00
(PID.TID 0000.0001) %MON trcstat_ptracer36_max        =   5.4903579588981817E-03
(PID.TID 0000.0001) %MON trcstat_ptracer36_min        =   1.5215793245837390E-06
(PID.TID 0000.0001) %MON trcstat_ptracer36_mean       =   1.9078474145535371E-04
(PID.TID 0000.0001) %MON trcstat_ptracer36_sd         =   9.4810169234968704E-04
(PID.TID 0000.0001) %MON trcstat_ptracer36_del2       =   0.0000000000000000E+00
(PID.TID 0000.0001) %MON trcstat_ptracer37_max        =   5.4903579588981830E-02
(PID.TID 0000.0001) %MON trcstat_ptracer37_min        =   1.5215793245837340E-05
(PID.TID 0000.0001) %MON trcstat_ptracer37_mean       =   1.9078474145535367E-03
(PID.TID 0000.0001) %MON trcstat_ptracer37_sd         =   9.4810169234968711E-03
(PID.TID 0000.0001) %MON trcstat_ptracer37_del2       =   0.0000000000000000E+00
(PID.TID 0000.0001) %MON trcstat_ptracer38_max        =   5.8528900151043152E-02
(PID.TID 0000.0001) %MON trcstat_ptracer38_min        =   1.5215800862630091E-05
(PID.TID 0000.0001) %MON trcstat_ptracer38_mean       =   1.9680948132775248E-03
(PID.TID 0000.0001) %MON trcstat_ptracer38_sd         =   9.8166025081181836E-03
(PID.TID 0000.0001) %MON trcstat_ptracer38_del2       =   0.0000000000000000E+00
(PID.TID 0000.0001) %MON trcstat_ptracer39_max        =   5.4903755937993348E-02
(PID.TID 0000.0001) %MON trcstat_ptracer39_min        =   1.5215797994179691E-05
(PID.TID 0000.0001) %MON trcstat_ptracer39_mean       =   1.9078527571098228E-03
(PID.TID 0000.0001) %MON trcstat_ptracer39_sd         =   9.4802353753270507E-03
(PID.TID 0000.0001) %MON trcstat_ptracer39_del2       =   0.0000000000000000E+00
(PID.TID 0000.0001) %MON trcstat_ptracer40_max        =   5.7932673049638894E-02
(PID.TID 0000.0001) %MON trcstat_ptracer40_min        =   1.5215810897379317E-05
(PID.TID 0000.0001) %MON trcstat_ptracer40_mean       =   1.9613544405950511E-03
(PID.TID 0000.0001) %MON trcstat_ptracer40_sd         =   9.7770325785157628E-03
(PID.TID 0000.0001) %MON trcstat_ptracer40_del2       =   0.0000000000000000E+00
(PID.TID 0000.0001) %MON trcstat_ptracer41_max        =   5.7448926207217033E-02
(PID.TID 0000.0001) %MON trcstat_ptracer41_min        =   1.5215829514252669E-05
(PID.TID 0000.0001) %MON trcstat_ptracer41_mean       =   1.9551800137825605E-03
(PID.TID 0000.0001) %MON trcstat_ptracer41_sd         =   9.7403848292053237E-03
(PID.TID 0000.0001) %MON trcstat_ptracer41_del2       =   0.0000000000000000E+00
(PID.TID 0000.0001) %MON trcstat_ptracer42_max        =   5.7014238553113605E-02
(PID.TID 0000.0001) %MON trcstat_ptracer42_min        =   1.5215864502475549E-05
(PID.TID 0000.0001) %MON trcstat_ptracer42_mean       =   1.9495694529401962E-03
(PID.TID 0000.0001) %MON trcstat_ptracer42_sd         =   9.7064249364993502E-03
(PID.TID 0000.0001) %MON trcstat_ptracer42_del2       =   0.0000000000000000E+00
(PID.TID 0000.0001) %MON trcstat_ptracer43_max        =   5.6619129034669098E-02
(PID.TID 0000.0001) %MON trcstat_ptracer43_min        =   1.5215930919797921E-05
(PID.TID 0000.0001) %MON trcstat_ptracer43_mean       =   1.9445012060752324E-03
(PID.TID 0000.0001) %MON trcstat_ptracer43_sd         =   9.6747559608004099E-03
(PID.TID 0000.0001) %MON trcstat_ptracer43_del2       =   0.0000000000000000E+00
(PID.TID 0000.0001) %MON trcstat_ptracer44_max        =   5.5142340511673563E-02
(PID.TID 0000.0001) %MON trcstat_ptracer44_min        =   1.5278275279535913E-05
(PID.TID 0000.0001) %MON trcstat_ptracer44_mean       =   1.9161939809193404E-03
(PID.TID 0000.0001) %MON trcstat_ptracer44_sd         =   9.5247968035399935E-03
(PID.TID 0000.0001) %MON trcstat_ptracer44_del2       =   0.0000000000000000E+00
(PID.TID 0000.0001) %MON trcstat_ptracer45_max        =   5.5142326226953642E-02
(PID.TID 0000.0001) %MON trcstat_ptracer45_min        =   1.5278275279535629E-05
(PID.TID 0000.0001) %MON trcstat_ptracer45_mean       =   1.9161935546726386E-03
(PID.TID 0000.0001) %MON trcstat_ptracer45_sd         =   9.5247944964654014E-03
(PID.TID 0000.0001) %MON trcstat_ptracer45_del2       =   0.0000000000000000E+00
(PID.TID 0000.0001) %MON trcstat_ptracer46_max        =   5.5142314402164425E-02
(PID.TID 0000.0001) %MON trcstat_ptracer46_min        =   1.5278275279535388E-05
(PID.TID 0000.0001) %MON trcstat_ptracer46_mean       =   1.9161932018274467E-03
(PID.TID 0000.0001) %MON trcstat_ptracer46_sd         =   9.5247925866778754E-03
(PID.TID 0000.0001) %MON trcstat_ptracer46_del2       =   0.0000000000000000E+00
(PID.TID 0000.0001) %MON trcstat_ptracer47_max        =   5.5142304613694806E-02
(PID.TID 0000.0001) %MON trcstat_ptracer47_min        =   1.5278275279535192E-05
(PID.TID 0000.0001) %MON trcstat_ptracer47_mean       =   1.9161929097434840E-03
(PID.TID 0000.0001) %MON trcstat_ptracer47_sd         =   9.5247910057615331E-03
(PID.TID 0000.0001) %MON trcstat_ptracer47_del2       =   0.0000000000000000E+00
(PID.TID 0000.0001) %MON trcstat_ptracer48_max        =   5.5142304519054199E-02
(PID.TID 0000.0001) %MON trcstat_ptracer48_min        =   1.5278275279535192E-05
(PID.TID 0000.0001) %MON trcstat_ptracer48_mean       =   1.9161929070584801E-03
(PID.TID 0000.0001) %MON trcstat_ptracer48_sd         =   9.5247909909302615E-03
(PID.TID 0000.0001) %MON trcstat_ptracer48_del2       =   0.0000000000000000E+00
(PID.TID 0000.0001) %MON trcstat_ptracer49_max        =   5.5142394736686473E-02
(PID.TID 0000.0001) %MON trcstat_ptracer49_min        =   1.5278275279537113E-05
(PID.TID 0000.0001) %MON trcstat_ptracer49_mean       =   1.9161956381556179E-03
(PID.TID 0000.0001) %MON trcstat_ptracer49_sd         =   9.5248057722578834E-03
(PID.TID 0000.0001) %MON trcstat_ptracer49_del2       =   0.0000000000000000E+00
(PID.TID 0000.0001) %MON trcstat_ptracer50_max        =   5.5142371108481109E-02
(PID.TID 0000.0001) %MON trcstat_ptracer50_min        =   1.5278275279536618E-05
(PID.TID 0000.0001) %MON trcstat_ptracer50_mean       =   1.9161949248278391E-03
(PID.TID 0000.0001) %MON trcstat_ptracer50_sd         =   9.5248019112102629E-03
(PID.TID 0000.0001) %MON trcstat_ptracer50_del2       =   0.0000000000000000E+00
(PID.TID 0000.0001) %MON trcstat_ptracer51_max        =   5.5142351545508346E-02
(PID.TID 0000.0001) %MON trcstat_ptracer51_min        =   1.5278275279536211E-05
(PID.TID 0000.0001) %MON trcstat_ptracer51_mean       =   1.9161943325569286E-03
(PID.TID 0000.0001) %MON trcstat_ptracer51_sd         =   9.5247987050921419E-03
(PID.TID 0000.0001) %MON trcstat_ptracer51_del2       =   0.0000000000000000E+00
(PID.TID 0000.0001) %MON trcstat_ptracer52_max        =   5.5142335352004523E-02
(PID.TID 0000.0001) %MON trcstat_ptracer52_min        =   1.5278275279535869E-05
(PID.TID 0000.0001) %MON trcstat_ptracer52_mean       =   1.9161938430322901E-03
(PID.TID 0000.0001) %MON trcstat_ptracer52_sd         =   9.5247960552901061E-03
(PID.TID 0000.0001) %MON trcstat_ptracer52_del2       =   0.0000000000000000E+00
(PID.TID 0000.0001) %MON trcstat_ptracer53_max        =   5.5142316183576914E-02
(PID.TID 0000.0001) %MON trcstat_ptracer53_min        =   1.5278275279535466E-05
(PID.TID 0000.0001) %MON trcstat_ptracer53_mean       =   1.9161932656450490E-03
(PID.TID 0000.0001) %MON trcstat_ptracer53_sd         =   9.5247929307300996E-03
(PID.TID 0000.0001) %MON trcstat_ptracer53_del2       =   0.0000000000000000E+00
(PID.TID 0000.0001) %MON trcstat_ptracer54_max        =   5.5142270186580758E-02
(PID.TID 0000.0001) %MON trcstat_ptracer54_min        =   1.5278275279534497E-05
(PID.TID 0000.0001) %MON trcstat_ptracer54_mean       =   1.9161918857208528E-03
(PID.TID 0000.0001) %MON trcstat_ptracer54_sd         =   9.5247854641052447E-03
(PID.TID 0000.0001) %MON trcstat_ptracer54_del2       =   0.0000000000000000E+00
(PID.TID 0000.0001) %MON trcstat_ptracer55_max        =   5.5142268009013458E-02
(PID.TID 0000.0001) %MON trcstat_ptracer55_min        =   1.5278275279534453E-05
(PID.TID 0000.0001) %MON trcstat_ptracer55_mean       =   1.9161918196620293E-03
(PID.TID 0000.0001) %MON trcstat_ptracer55_sd         =   9.5247851062811861E-03
(PID.TID 0000.0001) %MON trcstat_ptracer55_del2       =   0.0000000000000000E+00
(PID.TID 0000.0001) %MON trcstat_ptracer56_max        =   5.5142266206775085E-02
(PID.TID 0000.0001) %MON trcstat_ptracer56_min        =   1.5278275279534419E-05
(PID.TID 0000.0001) %MON trcstat_ptracer56_mean       =   1.9161917651230158E-03
(PID.TID 0000.0001) %MON trcstat_ptracer56_sd         =   9.5247848108783433E-03
(PID.TID 0000.0001) %MON trcstat_ptracer56_del2       =   0.0000000000000000E+00
(PID.TID 0000.0001) %MON trcstat_ptracer57_max        =   5.5142264715234784E-02
(PID.TID 0000.0001) %MON trcstat_ptracer57_min        =   1.5278275279534389E-05
(PID.TID 0000.0001) %MON trcstat_ptracer57_mean       =   1.9161917200837823E-03
(PID.TID 0000.0001) %MON trcstat_ptracer57_sd         =   9.5247845669443314E-03
(PID.TID 0000.0001) %MON trcstat_ptracer57_del2       =   0.0000000000000000E+00
(PID.TID 0000.0001) %MON trcstat_ptracer58_max        =   1.2290498070045616E-02
(PID.TID 0000.0001) %MON trcstat_ptracer58_min        =   2.8249887838456198E-06
(PID.TID 0000.0001) %MON trcstat_ptracer58_mean       =   3.8321166982073929E-04
(PID.TID 0000.0001) %MON trcstat_ptracer58_sd         =   1.8985925397860524E-03
(PID.TID 0000.0001) %MON trcstat_ptracer58_del2       =   0.0000000000000000E+00
(PID.TID 0000.0001) %MON trcstat_ptracer59_max        =   1.0371766555486444E-02
(PID.TID 0000.0001) %MON trcstat_ptracer59_min        =   2.5369983060779033E-06
(PID.TID 0000.0001) %MON trcstat_ptracer59_mean       =   3.3304930635421335E-04
(PID.TID 0000.0001) %MON trcstat_ptracer59_sd         =   1.6501653266541342E-03
(PID.TID 0000.0001) %MON trcstat_ptracer59_del2       =   0.0000000000000000E+00
(PID.TID 0000.0001) %MON trcstat_ptracer60_max        =   9.0991187513733817E-03
(PID.TID 0000.0001) %MON trcstat_ptracer60_min        =   2.3406770268076588E-06
(PID.TID 0000.0001) %MON trcstat_ptracer60_mean       =   3.0006179373177910E-04
(PID.TID 0000.0001) %MON trcstat_ptracer60_sd         =   1.4875750182796307E-03
(PID.TID 0000.0001) %MON trcstat_ptracer60_del2       =   0.0000000000000000E+00
(PID.TID 0000.0001) %MON trcstat_ptracer61_max        =   8.2833003095766130E-03
(PID.TID 0000.0001) %MON trcstat_ptracer61_min        =   2.2085340539306379E-06
(PID.TID 0000.0001) %MON trcstat_ptracer61_mean       =   2.7904034316020163E-04
(PID.TID 0000.0001) %MON trcstat_ptracer61_sd         =   1.3844238422511600E-03
(PID.TID 0000.0001) %MON trcstat_ptracer61_del2       =   0.0000000000000000E+00
(PID.TID 0000.0001) %MON trcstat_ptracer62_max        =   1.8301149948285187E-03
(PID.TID 0000.0001) %MON trcstat_ptracer62_min        =   5.0719293849712818E-07
(PID.TID 0000.0001) %MON trcstat_ptracer62_mean       =   6.3594784822823756E-05
(PID.TID 0000.0001) %MON trcstat_ptracer62_sd         =   3.1608346332618172E-04
(PID.TID 0000.0001) %MON trcstat_ptracer62_del2       =   0.0000000000000000E+00
(PID.TID 0000.0001) %MON trcstat_ptracer63_max        =   7.7791569446104668E-03
(PID.TID 0000.0001) %MON trcstat_ptracer63_min        =   2.1209025337426155E-06
(PID.TID 0000.0001) %MON trcstat_ptracer63_mean       =   2.6610195410992570E-04
(PID.TID 0000.0001) %MON trcstat_ptracer63_sd         =   1.3211980609259808E-03
(PID.TID 0000.0001) %MON trcstat_ptracer63_del2       =   0.0000000000000000E+00
(PID.TID 0000.0001) %MON trcstat_ptracer64_max        =   7.4885167962951034E-03
(PID.TID 0000.0001) %MON trcstat_ptracer64_min        =   2.0641742415797616E-06
(PID.TID 0000.0001) %MON trcstat_ptracer64_mean       =   2.5872377843382915E-04
(PID.TID 0000.0001) %MON trcstat_ptracer64_sd         =   1.2854747290979667E-03
(PID.TID 0000.0001) %MON trcstat_ptracer64_del2       =   0.0000000000000000E+00
(PID.TID 0000.0001) %MON trcstat_ptracer65_max        =   1.8300977756257053E-03
(PID.TID 0000.0001) %MON trcstat_ptracer65_min        =   5.0719295268387687E-07
(PID.TID 0000.0001) %MON trcstat_ptracer65_mean       =   6.3594263866628784E-05
(PID.TID 0000.0001) %MON trcstat_ptracer65_sd         =   3.1607353628239831E-04
(PID.TID 0000.0001) %MON trcstat_ptracer65_del2       =   0.0000000000000000E+00
(PID.TID 0000.0001) %MON trcstat_ptracer66_max        =   7.4803818472496770E-03
(PID.TID 0000.0001) %MON trcstat_ptracer66_min        =   2.0641742415797616E-06
(PID.TID 0000.0001) %MON trcstat_ptracer66_mean       =   2.5845858745155391E-04
(PID.TID 0000.0001) %MON trcstat_ptracer66_sd         =   1.2840103003162523E-03
(PID.TID 0000.0001) %MON trcstat_ptracer66_del2       =   0.0000000000000000E+00
(PID.TID 0000.0001) %MON trcstat_ptracer67_max        =   7.3246458746381530E-03
(PID.TID 0000.0001) %MON trcstat_ptracer67_min        =   2.0287719116052857E-06
(PID.TID 0000.0001) %MON trcstat_ptracer67_mean       =   2.5447987736461607E-04
(PID.TID 0000.0001) %MON trcstat_ptracer67_sd         =   1.2648286824828287E-03
(PID.TID 0000.0001) %MON trcstat_ptracer67_del2       =   0.0000000000000000E+00
(PID.TID 0000.0001) %MON trcstat_ptracer68_max        =   1.8301063551536116E-03
(PID.TID 0000.0001) %MON trcstat_ptracer68_min        =   5.0719297790132313E-07
(PID.TID 0000.0001) %MON trcstat_ptracer68_mean       =   6.3594522083215677E-05
(PID.TID 0000.0001) %MON trcstat_ptracer68_sd         =   3.1606500352644848E-04
(PID.TID 0000.0001) %MON trcstat_ptracer68_del2       =   0.0000000000000000E+00
(PID.TID 0000.0001) %MON trcstat_ptracer69_max        =   7.3204254206144462E-03
(PID.TID 0000.0001) %MON trcstat_ptracer69_min        =   2.0287719116052857E-06
(PID.TID 0000.0001) %MON trcstat_ptracer69_mean       =   2.5437808833286271E-04
(PID.TID 0000.0001) %MON trcstat_ptracer69_sd         =   1.2642600141057939E-03
(PID.TID 0000.0001) %MON trcstat_ptracer69_del2       =   0.0000000000000000E+00
(PID.TID 0000.0001) %MON trcstat_ptracer70_max        =   7.3204538095266013E-03
(PID.TID 0000.0001) %MON trcstat_ptracer70_min        =   2.0287720946827663E-06
(PID.TID 0000.0001) %MON trcstat_ptracer70_mean       =   2.5437894531882673E-04
(PID.TID 0000.0001) %MON trcstat_ptracer70_sd         =   1.2642091839243535E-03
(PID.TID 0000.0001) %MON trcstat_ptracer70_del2       =   0.0000000000000000E+00
(PID.TID 0000.0001) %MON trcstat_ptracer71_max        =   1.8301134523816503E-03
(PID.TID 0000.0001) %MON trcstat_ptracer71_min        =   5.0719302367069327E-07
(PID.TID 0000.0001) %MON trcstat_ptracer71_mean       =   6.3594736329706682E-05
(PID.TID 0000.0001) %MON trcstat_ptracer71_sd         =   3.1605229598108837E-04
(PID.TID 0000.0001) %MON trcstat_ptracer71_del2       =   0.0000000000000000E+00
(PID.TID 0000.0001) %MON trcstat_ptracer72_max        =   7.3204538095266013E-03
(PID.TID 0000.0001) %MON trcstat_ptracer72_min        =   2.0287720946827663E-06
(PID.TID 0000.0001) %MON trcstat_ptracer72_mean       =   2.5437894531882673E-04
(PID.TID 0000.0001) %MON trcstat_ptracer72_sd         =   1.2642091839243535E-03
(PID.TID 0000.0001) %MON trcstat_ptracer72_del2       =   0.0000000000000000E+00
(PID.TID 0000.0001) %MON trcstat_ptracer73_max        =   7.3204772785309090E-03
(PID.TID 0000.0001) %MON trcstat_ptracer73_min        =   2.0287724327783114E-06
(PID.TID 0000.0001) %MON trcstat_ptracer73_mean       =   2.5437965527380483E-04
(PID.TID 0000.0001) %MON trcstat_ptracer73_sd         =   1.2641355897995827E-03
(PID.TID 0000.0001) %MON trcstat_ptracer73_del2       =   0.0000000000000000E+00
(PID.TID 0000.0001) %MON trcstat_ptracer74_max        =   1.8301193196327272E-03
(PID.TID 0000.0001) %MON trcstat_ptracer74_min        =   5.0719310819457964E-07
(PID.TID 0000.0001) %MON trcstat_ptracer74_mean       =   6.3594913818451208E-05
(PID.TID 0000.0001) %MON trcstat_ptracer74_sd         =   3.1603389744989566E-04
(PID.TID 0000.0001) %MON trcstat_ptracer74_del2       =   0.0000000000000000E+00
(PID.TID 0000.0001) %MON trcstat_ptracer75_max        =   7.3204772785309090E-03
(PID.TID 0000.0001) %MON trcstat_ptracer75_min        =   2.0287724327783114E-06
(PID.TID 0000.0001) %MON trcstat_ptracer75_mean       =   2.5437965527380483E-04
(PID.TID 0000.0001) %MON trcstat_ptracer75_sd         =   1.2641355897995827E-03
(PID.TID 0000.0001) %MON trcstat_ptracer75_del2       =   0.0000000000000000E+00
(PID.TID 0000.0001) %MON trcstat_ptracer76_max        =   7.3205007917324484E-03
(PID.TID 0000.0001) %MON trcstat_ptracer76_min        =   2.0287730658906246E-06
(PID.TID 0000.0001) %MON trcstat_ptracer76_mean       =   2.5438036761464306E-04
(PID.TID 0000.0001) %MON trcstat_ptracer76_sd         =   1.2640313833769397E-03
(PID.TID 0000.0001) %MON trcstat_ptracer76_del2       =   0.0000000000000000E+00
(PID.TID 0000.0001) %MON trcstat_ptracer77_max        =   7.3205007917324484E-03
(PID.TID 0000.0001) %MON trcstat_ptracer77_min        =   2.0287730658906246E-06
(PID.TID 0000.0001) %MON trcstat_ptracer77_mean       =   2.5438036761464306E-04
(PID.TID 0000.0001) %MON trcstat_ptracer77_sd         =   1.2640313833769397E-03
(PID.TID 0000.0001) %MON trcstat_ptracer77_del2       =   0.0000000000000000E+00
(PID.TID 0000.0001) %MON trcstat_ptracer78_max        =   7.3205516774191137E-03
(PID.TID 0000.0001) %MON trcstat_ptracer78_min        =   2.0287742643626434E-06
(PID.TID 0000.0001) %MON trcstat_ptracer78_mean       =   2.5438189981702512E-04
(PID.TID 0000.0001) %MON trcstat_ptracer78_sd         =   1.2638889602546886E-03
(PID.TID 0000.0001) %MON trcstat_ptracer78_del2       =   0.0000000000000000E+00
(PID.TID 0000.0001) %MON trcstat_ptracer79_max        =   7.3205581051672738E-03
(PID.TID 0000.0001) %MON trcstat_ptracer79_min        =   2.0287765518735020E-06
(PID.TID 0000.0001) %MON trcstat_ptracer79_mean       =   2.5438210639923420E-04
(PID.TID 0000.0001) %MON trcstat_ptracer79_sd         =   1.2636800578347657E-03
(PID.TID 0000.0001) %MON trcstat_ptracer79_del2       =   0.0000000000000000E+00
(PID.TID 0000.0001) %MON trcstat_ptracer80_max        =   7.3205633083259572E-03
(PID.TID 0000.0001) %MON trcstat_ptracer80_min        =   2.0287809451647748E-06
(PID.TID 0000.0001) %MON trcstat_ptracer80_mean       =   2.5438228121063572E-04
(PID.TID 0000.0001) %MON trcstat_ptracer80_sd         =   1.2633886597584344E-03
(PID.TID 0000.0001) %MON trcstat_ptracer80_del2       =   0.0000000000000000E+00
(PID.TID 0000.0001) %MON trcstat_ptracer81_max        =   7.3205674511998978E-03
(PID.TID 0000.0001) %MON trcstat_ptracer81_min        =   2.0287894215322154E-06
(PID.TID 0000.0001) %MON trcstat_ptracer81_mean       =   2.5438243136768093E-04
(PID.TID 0000.0001) %MON trcstat_ptracer81_sd         =   1.2629831792612270E-03
(PID.TID 0000.0001) %MON trcstat_ptracer81_del2       =   0.0000000000000000E+00
(PID.TID 0000.0001) %MON trcstat_ptracer82_max        =   7.3523960050893098E-03
(PID.TID 0000.0001) %MON trcstat_ptracer82_min        =   2.0371033706064448E-06
(PID.TID 0000.0001) %MON trcstat_ptracer82_mean       =   2.5549490372830209E-04
(PID.TID 0000.0001) %MON trcstat_ptracer82_sd         =   1.2699857338647523E-03
(PID.TID 0000.0001) %MON trcstat_ptracer82_del2       =   0.0000000000000000E+00
(PID.TID 0000.0001) %MON trcstat_ptracer83_max        =   7.3523588303752658E-03
(PID.TID 0000.0001) %MON trcstat_ptracer83_min        =   2.0371033706057163E-06
(PID.TID 0000.0001) %MON trcstat_ptracer83_mean       =   2.5549387606867569E-04
(PID.TID 0000.0001) %MON trcstat_ptracer83_sd         =   1.2699801821910389E-03
(PID.TID 0000.0001) %MON trcstat_ptracer83_del2       =   0.0000000000000000E+00
(PID.TID 0000.0001) %MON trcstat_ptracer84_max        =   7.3523329284103213E-03
(PID.TID 0000.0001) %MON trcstat_ptracer84_min        =   2.0371033706052034E-06
(PID.TID 0000.0001) %MON trcstat_ptracer84_mean       =   2.5549313698979307E-04
(PID.TID 0000.0001) %MON trcstat_ptracer84_sd         =   1.2699761861706099E-03
(PID.TID 0000.0001) %MON trcstat_ptracer84_del2       =   0.0000000000000000E+00
(PID.TID 0000.0001) %MON trcstat_ptracer85_max        =   7.3523141898436924E-03
(PID.TID 0000.0001) %MON trcstat_ptracer85_min        =   2.0371033706048299E-06
(PID.TID 0000.0001) %MON trcstat_ptracer85_mean       =   2.5549259043605884E-04
(PID.TID 0000.0001) %MON trcstat_ptracer85_sd         =   1.2699732295084175E-03
(PID.TID 0000.0001) %MON trcstat_ptracer85_del2       =   0.0000000000000000E+00
(PID.TID 0000.0001) %MON trcstat_ptracer86_max        =   7.3523010079568664E-03
(PID.TID 0000.0001) %MON trcstat_ptracer86_min        =   2.0371033706045652E-06
(PID.TID 0000.0001) %MON trcstat_ptracer86_mean       =   2.5549220076458401E-04
(PID.TID 0000.0001) %MON trcstat_ptracer86_sd         =   1.2699711208731938E-03
(PID.TID 0000.0001) %MON trcstat_ptracer86_del2       =   0.0000000000000000E+00
(PID.TID 0000.0001) %MON trcstat_ptracer87_max        =   7.3523010074747512E-03
(PID.TID 0000.0001) %MON trcstat_ptracer87_min        =   2.0371033706045652E-06
(PID.TID 0000.0001) %MON trcstat_ptracer87_mean       =   2.5549220075040991E-04
(PID.TID 0000.0001) %MON trcstat_ptracer87_sd         =   1.2699711207955985E-03
(PID.TID 0000.0001) %MON trcstat_ptracer87_del2       =   0.0000000000000000E+00
(PID.TID 0000.0001) %MON trcstat_ptracer88_max        =   7.3523010076012550E-03
(PID.TID 0000.0001) %MON trcstat_ptracer88_min        =   2.0371033706045652E-06
(PID.TID 0000.0001) %MON trcstat_ptracer88_mean       =   2.5549220075412774E-04
(PID.TID 0000.0001) %MON trcstat_ptracer88_sd         =   1.2699711208159533E-03
(PID.TID 0000.0001) %MON trcstat_ptracer88_del2       =   0.0000000000000000E+00
(PID.TID 0000.0001) %MON trcstat_ptracer89_max        =   7.3523010077059742E-03
(PID.TID 0000.0001) %MON trcstat_ptracer89_min        =   2.0371033706045652E-06
(PID.TID 0000.0001) %MON trcstat_ptracer89_mean       =   2.5549220075720531E-04
(PID.TID 0000.0001) %MON trcstat_ptracer89_sd         =   1.2699711208328036E-03
(PID.TID 0000.0001) %MON trcstat_ptracer89_del2       =   0.0000000000000000E+00
(PID.TID 0000.0001) %MON trcstat_ptracer90_max        =   7.3523010077926583E-03
(PID.TID 0000.0001) %MON trcstat_ptracer90_min        =   2.0371033706045652E-06
(PID.TID 0000.0001) %MON trcstat_ptracer90_mean       =   2.5549220075975286E-04
(PID.TID 0000.0001) %MON trcstat_ptracer90_sd         =   1.2699711208467518E-03
(PID.TID 0000.0001) %MON trcstat_ptracer90_del2       =   0.0000000000000000E+00
(PID.TID 0000.0001) %MON trcstat_ptracer91_max        =   7.3523010078953522E-03
(PID.TID 0000.0001) %MON trcstat_ptracer91_min        =   2.0371033706045652E-06
(PID.TID 0000.0001) %MON trcstat_ptracer91_mean       =   2.5549220076277160E-04
(PID.TID 0000.0001) %MON trcstat_ptracer91_sd         =   1.2699711208632783E-03
(PID.TID 0000.0001) %MON trcstat_ptracer91_del2       =   0.0000000000000000E+00
(PID.TID 0000.0001) %MON trcstat_ptracer92_max        =   7.3523010081419605E-03
(PID.TID 0000.0001) %MON trcstat_ptracer92_min        =   2.0371033706045652E-06
(PID.TID 0000.0001) %MON trcstat_ptracer92_mean       =   2.5549220077002003E-04
(PID.TID 0000.0001) %MON trcstat_ptracer92_sd         =   1.2699711209029627E-03
(PID.TID 0000.0001) %MON trcstat_ptracer92_del2       =   0.0000000000000000E+00
(PID.TID 0000.0001) %MON trcstat_ptracer93_max        =   7.3523010081535641E-03
(PID.TID 0000.0001) %MON trcstat_ptracer93_min        =   2.0371033706045652E-06
(PID.TID 0000.0001) %MON trcstat_ptracer93_mean       =   2.5549220077036080E-04
(PID.TID 0000.0001) %MON trcstat_ptracer93_sd         =   1.2699711209048284E-03
(PID.TID 0000.0001) %MON trcstat_ptracer93_del2       =   0.0000000000000000E+00
(PID.TID 0000.0001) %MON trcstat_ptracer94_max        =   7.3523010081631692E-03
(PID.TID 0000.0001) %MON trcstat_ptracer94_min        =   2.0371033706045652E-06
(PID.TID 0000.0001) %MON trcstat_ptracer94_mean       =   2.5549220077064291E-04
(PID.TID 0000.0001) %MON trcstat_ptracer94_sd         =   1.2699711209063732E-03
(PID.TID 0000.0001) %MON trcstat_ptracer94_del2       =   0.0000000000000000E+00
(PID.TID 0000.0001) %MON trcstat_ptracer95_max        =   7.3523010081711204E-03
(PID.TID 0000.0001) %MON trcstat_ptracer95_min        =   2.0371033706045652E-06
(PID.TID 0000.0001) %MON trcstat_ptracer95_mean       =   2.5549220077087634E-04
(PID.TID 0000.0001) %MON trcstat_ptracer95_sd         =   1.2699711209076521E-03
(PID.TID 0000.0001) %MON trcstat_ptracer95_del2       =   0.0000000000000000E+00
(PID.TID 0000.0001) %MON trcstat_ptracer96_max        =   5.4163723452838768E-04
(PID.TID 0000.0001) %MON trcstat_ptracer96_min        =   1.5012269108877058E-07
(PID.TID 0000.0001) %MON trcstat_ptracer96_mean       =   1.8821460802365969E-05
(PID.TID 0000.0001) %MON trcstat_ptracer96_sd         =   9.3551160063431028E-05
(PID.TID 0000.0001) %MON trcstat_ptracer96_del2       =   0.0000000000000000E+00
(PID.TID 0000.0001) %MON trcstat_ptracer97_max        =   5.2777997003050582E-04
(PID.TID 0000.0001) %MON trcstat_ptracer97_min        =   1.4629099134554232E-07
(PID.TID 0000.0001) %MON trcstat_ptracer97_mean       =   1.8339934993010931E-05
(PID.TID 0000.0001) %MON trcstat_ptracer97_sd         =   9.1156893412870925E-05
(PID.TID 0000.0001) %MON trcstat_ptracer97_del2       =   0.0000000000000000E+00
(PID.TID 0000.0001) %MON trcstat_ptracer98_max        =   5.1321824544617019E-04
(PID.TID 0000.0001) %MON trcstat_ptracer98_min        =   1.4226195520788137E-07
(PID.TID 0000.0001) %MON trcstat_ptracer98_mean       =   1.7833926670221352E-05
(PID.TID 0000.0001) %MON trcstat_ptracer98_sd         =   8.8640826177153320E-05
(PID.TID 0000.0001) %MON trcstat_ptracer98_del2       =   0.0000000000000000E+00
(PID.TID 0000.0001) %MON trcstat_ptracer99_max        =   5.0026472706670485E-04
(PID.TID 0000.0001) %MON trcstat_ptracer99_min        =   1.3867671776521197E-07
(PID.TID 0000.0001) %MON trcstat_ptracer99_mean       =   1.7383800546254669E-05
(PID.TID 0000.0001) %MON trcstat_ptracer99_sd         =   8.6402340184024603E-05
(PID.TID 0000.0001) %MON trcstat_ptracer99_del2       =   0.0000000000000000E+00
(PID.TID 0000.0001) %MON trcstat_ptracer0a_max        =   4.8960109421366518E-05
(PID.TID 0000.0001) %MON trcstat_ptracer0a_min        =   1.3572466051643808E-08
(PID.TID 0000.0001) %MON trcstat_ptracer0a_mean       =   1.7013248813057722E-06
(PID.TID 0000.0001) %MON trcstat_ptracer0a_sd         =   8.4559078873934715E-06
(PID.TID 0000.0001) %MON trcstat_ptracer0a_del2       =   0.0000000000000000E+00
(PID.TID 0000.0001) %MON trcstat_ptracer0b_max        =   4.8960109421366518E-04
(PID.TID 0000.0001) %MON trcstat_ptracer0b_min        =   1.3572466051643767E-07
(PID.TID 0000.0001) %MON trcstat_ptracer0b_mean       =   1.7013248813057724E-05
(PID.TID 0000.0001) %MON trcstat_ptracer0b_sd         =   8.4559078873934688E-05
(PID.TID 0000.0001) %MON trcstat_ptracer0b_del2       =   0.0000000000000000E+00
(PID.TID 0000.0001) %MON trcstat_ptracer0c_max        =   4.8499159436431633E-04
(PID.TID 0000.0001) %MON trcstat_ptracer0c_min        =   1.3339732372901936E-07
(PID.TID 0000.0001) %MON trcstat_ptracer0c_mean       =   1.6781255602791154E-05
(PID.TID 0000.0001) %MON trcstat_ptracer0c_sd         =   8.3439603447395608E-05
(PID.TID 0000.0001) %MON trcstat_ptracer0c_del2       =   0.0000000000000000E+00
(PID.TID 0000.0001) %MON trcstat_ptracer0d_max        =   4.8119175952660554E-05
(PID.TID 0000.0001) %MON trcstat_ptracer0d_min        =   1.3339732340650098E-08
(PID.TID 0000.0001) %MON trcstat_ptracer0d_mean       =   1.6721054184512477E-06
(PID.TID 0000.0001) %MON trcstat_ptracer0d_sd         =   8.3104783941912080E-06
(PID.TID 0000.0001) %MON trcstat_ptracer0d_del2       =   0.0000000000000000E+00
(PID.TID 0000.0001) %MON trcstat_ptracer0e_max        =   4.8119175952660557E-04
(PID.TID 0000.0001) %MON trcstat_ptracer0e_min        =   1.3339732340650053E-07
(PID.TID 0000.0001) %MON trcstat_ptracer0e_mean       =   1.6721054184512486E-05
(PID.TID 0000.0001) %MON trcstat_ptracer0e_sd         =   8.3104783941912087E-05
(PID.TID 0000.0001) %MON trcstat_ptracer0e_del2       =   0.0000000000000000E+00
(PID.TID 0000.0001) %MON trcstat_ptracer0f_max        =   4.7721910842348577E-04
(PID.TID 0000.0001) %MON trcstat_ptracer0f_min        =   1.3161142740202361E-07
(PID.TID 0000.0001) %MON trcstat_ptracer0f_mean       =   1.6538357732965798E-05
(PID.TID 0000.0001) %MON trcstat_ptracer0f_sd         =   8.2218417019789270E-05
(PID.TID 0000.0001) %MON trcstat_ptracer0f_del2       =   0.0000000000000000E+00
(PID.TID 0000.0001) %MON trcstat_ptracer0g_max        =   4.7474749764221675E-05
(PID.TID 0000.0001) %MON trcstat_ptracer0g_min        =   1.3161142717178856E-08
(PID.TID 0000.0001) %MON trcstat_ptracer0g_mean       =   1.6497112430802927E-06
(PID.TID 0000.0001) %MON trcstat_ptracer0g_sd         =   8.1989182861331604E-06
(PID.TID 0000.0001) %MON trcstat_ptracer0g_del2       =   0.0000000000000000E+00
(PID.TID 0000.0001) %MON trcstat_ptracer0h_max        =   4.7474749764221674E-04
(PID.TID 0000.0001) %MON trcstat_ptracer0h_min        =   1.3161142717178814E-07
(PID.TID 0000.0001) %MON trcstat_ptracer0h_mean       =   1.6497112430802930E-05
(PID.TID 0000.0001) %MON trcstat_ptracer0h_sd         =   8.1989182861331577E-05
(PID.TID 0000.0001) %MON trcstat_ptracer0h_del2       =   0.0000000000000000E+00
(PID.TID 0000.0001) %MON trcstat_ptracer0i_max        =   4.7126385153164194E-04
(PID.TID 0000.0001) %MON trcstat_ptracer0i_min        =   1.3026576935412628E-07
(PID.TID 0000.0001) %MON trcstat_ptracer0i_mean       =   1.6354765352864069E-05
(PID.TID 0000.0001) %MON trcstat_ptracer0i_sd         =   8.1293481987522169E-05
(PID.TID 0000.0001) %MON trcstat_ptracer0i_del2       =   0.0000000000000000E+00
(PID.TID 0000.0001) %MON trcstat_ptracer0j_max        =   4.6989561732446637E-05
(PID.TID 0000.0001) %MON trcstat_ptracer0j_min        =   1.3026576919081557E-08
(PID.TID 0000.0001) %MON trcstat_ptracer0j_mean       =   1.6328505369379194E-06
(PID.TID 0000.0001) %MON trcstat_ptracer0j_sd         =   8.1147687595202168E-06
(PID.TID 0000.0001) %MON trcstat_ptracer0j_del2       =   0.0000000000000000E+00
(PID.TID 0000.0001) %MON trcstat_ptracer0k_max        =   4.6989561732446635E-04
(PID.TID 0000.0001) %MON trcstat_ptracer0k_min        =   1.3026576919081513E-07
(PID.TID 0000.0001) %MON trcstat_ptracer0k_mean       =   1.6328505369379195E-05
(PID.TID 0000.0001) %MON trcstat_ptracer0k_sd         =   8.1147687595202158E-05
(PID.TID 0000.0001) %MON trcstat_ptracer0k_del2       =   0.0000000000000000E+00
(PID.TID 0000.0001) %MON trcstat_ptracer0l_max        =   4.6696886084020506E-04
(PID.TID 0000.0001) %MON trcstat_ptracer0l_min        =   1.2926537824807182E-07
(PID.TID 0000.0001) %MON trcstat_ptracer0l_mean       =   1.6219803516418964E-05
(PID.TID 0000.0001) %MON trcstat_ptracer0l_sd         =   8.0612115584607335E-05
(PID.TID 0000.0001) %MON trcstat_ptracer0l_del2       =   0.0000000000000000E+00
(PID.TID 0000.0001) %MON trcstat_ptracer0m_max        =   4.6629318276030365E-05
(PID.TID 0000.0001) %MON trcstat_ptracer0m_min        =   1.2926537813317992E-08
(PID.TID 0000.0001) %MON trcstat_ptracer0m_mean       =   1.6203315866773123E-06
(PID.TID 0000.0001) %MON trcstat_ptracer0m_sd         =   8.0520672190515108E-06
(PID.TID 0000.0001) %MON trcstat_ptracer0m_del2       =   0.0000000000000000E+00
(PID.TID 0000.0001) %MON trcstat_ptracer0n_max        =   4.6629318276030369E-04
(PID.TID 0000.0001) %MON trcstat_ptracer0n_min        =   1.2926537813317945E-07
(PID.TID 0000.0001) %MON trcstat_ptracer0n_mean       =   1.6203315866773123E-05
(PID.TID 0000.0001) %MON trcstat_ptracer0n_sd         =   8.0520672190515077E-05
(PID.TID 0000.0001) %MON trcstat_ptracer0n_del2       =   0.0000000000000000E+00
(PID.TID 0000.0001) %MON trcstat_ptracer0o_max        =   4.6401516589625531E-04
(PID.TID 0000.0001) %MON trcstat_ptracer0o_min        =   1.2852995855789249E-07
(PID.TID 0000.0001) %MON trcstat_ptracer0o_mean       =   1.6121660736849169E-05
(PID.TID 0000.0001) %MON trcstat_ptracer0o_sd         =   8.0113978648912529E-05
(PID.TID 0000.0001) %MON trcstat_ptracer0o_del2       =   0.0000000000000000E+00
(PID.TID 0000.0001) %MON trcstat_ptracer0p_max        =   4.6365046269904875E-04
(PID.TID 0000.0001) %MON trcstat_ptracer0p_min        =   1.2852995847791405E-07
(PID.TID 0000.0001) %MON trcstat_ptracer0p_mean       =   1.6111474475296870E-05
(PID.TID 0000.0001) %MON trcstat_ptracer0p_sd         =   8.0057546037199759E-05
(PID.TID 0000.0001) %MON trcstat_ptracer0p_del2       =   0.0000000000000000E+00
(PID.TID 0000.0001) %MON trcstat_ptracer0q_max        =   4.6190767221275362E-04
(PID.TID 0000.0001) %MON trcstat_ptracer0q_min        =   1.2799518196083690E-07
(PID.TID 0000.0001) %MON trcstat_ptracer0q_mean       =   1.6051126892569863E-05
(PID.TID 0000.0001) %MON trcstat_ptracer0q_sd         =   7.9751834771931039E-05
(PID.TID 0000.0001) %MON trcstat_ptracer0q_del2       =   0.0000000000000000E+00
(PID.TID 0000.0001) %MON trcstat_ptracer0r_max        =   4.6044232666637676E-04
(PID.TID 0000.0001) %MON trcstat_ptracer0r_min        =   1.2761103387232483E-07
(PID.TID 0000.0001) %MON trcstat_ptracer0r_mean       =   1.6000975836974980E-05
(PID.TID 0000.0001) %MON trcstat_ptracer0r_sd         =   7.9488178424514321E-05
(PID.TID 0000.0001) %MON trcstat_ptracer0r_del2       =   0.0000000000000000E+00
(PID.TID 0000.0001) %MON trcstat_ptracer0s_max        =   4.5943998410944619E-04
(PID.TID 0000.0001) %MON trcstat_ptracer0s_min        =   1.2733922947507061E-07
(PID.TID 0000.0001) %MON trcstat_ptracer0s_mean       =   1.5965915911210398E-05
(PID.TID 0000.0001) %MON trcstat_ptracer0s_sd         =   7.9294975448113264E-05
(PID.TID 0000.0001) %MON trcstat_ptracer0s_del2       =   0.0000000000000000E+00
(PID.TID 0000.0001) %MON trcstat_ptracer0t_max        =   4.5876001409403513E-04
(PID.TID 0000.0001) %MON trcstat_ptracer0t_min        =   1.2715063687600076E-07
(PID.TID 0000.0001) %MON trcstat_ptracer0t_mean       =   1.5941883146133770E-05
(PID.TID 0000.0001) %MON trcstat_ptracer0t_sd         =   7.9149825255020608E-05
(PID.TID 0000.0001) %MON trcstat_ptracer0t_del2       =   0.0000000000000000E+00
(PID.TID 0000.0001) %MON trcstat_ptracer0u_max        =   4.5952058553228633E-04
(PID.TID 0000.0001) %MON trcstat_ptracer0u_min        =   1.2731896066282103E-07
(PID.TID 0000.0001) %MON trcstat_ptracer0u_mean       =   1.5968315437580543E-05
(PID.TID 0000.0001) %MON trcstat_ptracer0u_sd         =   7.9373481321487076E-05
(PID.TID 0000.0001) %MON trcstat_ptracer0u_del2       =   0.0000000000000000E+00
(PID.TID 0000.0001) %MON trcstat_ptracer0v_max        =   4.5952025328078935E-04
(PID.TID 0000.0001) %MON trcstat_ptracer0v_min        =   1.2731896066281436E-07
(PID.TID 0000.0001) %MON trcstat_ptracer0v_mean       =   1.5968305523534715E-05
(PID.TID 0000.0001) %MON trcstat_ptracer0v_sd         =   7.9373427661417646E-05
(PID.TID 0000.0001) %MON trcstat_ptracer0v_del2       =   0.0000000000000000E+00
(PID.TID 0000.0001) %MON trcstat_ptracer0w_max        =   4.5951998900445150E-04
(PID.TID 0000.0001) %MON trcstat_ptracer0w_min        =   1.2731896066280902E-07
(PID.TID 0000.0001) %MON trcstat_ptracer0w_mean       =   1.5968297637767701E-05
(PID.TID 0000.0001) %MON trcstat_ptracer0w_sd         =   7.9373384979449321E-05
(PID.TID 0000.0001) %MON trcstat_ptracer0w_del2       =   0.0000000000000000E+00
(PID.TID 0000.0001) %MON trcstat_ptracer0x_max        =   4.5951977671300856E-04
(PID.TID 0000.0001) %MON trcstat_ptracer0x_min        =   1.2731896066280473E-07
(PID.TID 0000.0001) %MON trcstat_ptracer0x_mean       =   1.5968291303150100E-05
(PID.TID 0000.0001) %MON trcstat_ptracer0x_sd         =   7.9373350693104697E-05
(PID.TID 0000.0001) %MON trcstat_ptracer0x_del2       =   0.0000000000000000E+00
(PID.TID 0000.0001) %MON trcstat_ptracer0y_max        =   4.5951976768592809E-04
(PID.TID 0000.0001) %MON trcstat_ptracer0y_min        =   1.2731896066280465E-07
(PID.TID 0000.0001) %MON trcstat_ptracer0y_mean       =   1.5968291036633148E-05
(PID.TID 0000.0001) %MON trcstat_ptracer0y_sd         =   7.9373349244506525E-05
(PID.TID 0000.0001) %MON trcstat_ptracer0y_del2       =   0.0000000000000000E+00
(PID.TID 0000.0001) %MON trcstat_ptracer0z_max        =   4.5952158116317011E-04
(PID.TID 0000.0001) %MON trcstat_ptracer0z_min        =   1.2731896066284332E-07
(PID.TID 0000.0001) %MON trcstat_ptracer0z_mean       =   1.5968345576775566E-05
(PID.TID 0000.0001) %MON trcstat_ptracer0z_sd         =   7.9373644341624694E-05
(PID.TID 0000.0001) %MON trcstat_ptracer0z_del2       =   0.0000000000000000E+00
(PID.TID 0000.0001) %MON trcstat_ptracer0A_max        =   4.5952109538335964E-04
(PID.TID 0000.0001) %MON trcstat_ptracer0A_min        =   1.2731896066283313E-07
(PID.TID 0000.0001) %MON trcstat_ptracer0A_mean       =   1.5968330989769732E-05
(PID.TID 0000.0001) %MON trcstat_ptracer0A_sd         =   7.9373565404257539E-05
(PID.TID 0000.0001) %MON trcstat_ptracer0A_del2       =   0.0000000000000000E+00
(PID.TID 0000.0001) %MON trcstat_ptracer0B_max        =   4.5952069683603927E-04
(PID.TID 0000.0001) %MON trcstat_ptracer0B_min        =   1.2731896066282477E-07
(PID.TID 0000.0001) %MON trcstat_ptracer0B_mean       =   1.5968319006610834E-05
(PID.TID 0000.0001) %MON trcstat_ptracer0B_sd         =   7.9373500554533953E-05
(PID.TID 0000.0001) %MON trcstat_ptracer0B_del2       =   0.0000000000000000E+00
(PID.TID 0000.0001) %MON trcstat_ptracer0C_max        =   4.5952036910264476E-04
(PID.TID 0000.0001) %MON trcstat_ptracer0C_min        =   1.2731896066281791E-07
(PID.TID 0000.0001) %MON trcstat_ptracer0C_mean       =   1.5968309159689985E-05
(PID.TID 0000.0001) %MON trcstat_ptracer0C_sd         =   7.9373447266705918E-05
(PID.TID 0000.0001) %MON trcstat_ptracer0C_del2       =   0.0000000000000000E+00
(PID.TID 0000.0001) %MON trcstat_ptracer0D_max        =   4.5951998387583218E-04
(PID.TID 0000.0001) %MON trcstat_ptracer0D_min        =   1.2731896066280976E-07
(PID.TID 0000.0001) %MON trcstat_ptracer0D_mean       =   1.5968297603633005E-05
(PID.TID 0000.0001) %MON trcstat_ptracer0D_sd         =   7.9373384741849166E-05
(PID.TID 0000.0001) %MON trcstat_ptracer0D_del2       =   0.0000000000000000E+00
(PID.TID 0000.0001) %MON trcstat_ptracer0E_max        =   4.5951906444875637E-04
(PID.TID 0000.0001) %MON trcstat_ptracer0E_min        =   1.2731896066279038E-07
(PID.TID 0000.0001) %MON trcstat_ptracer0E_mean       =   1.5968270080784929E-05
(PID.TID 0000.0001) %MON trcstat_ptracer0E_sd         =   7.9373235834718955E-05
(PID.TID 0000.0001) %MON trcstat_ptracer0E_del2       =   0.0000000000000000E+00
(PID.TID 0000.0001) %MON trcstat_ptracer0F_max        =   4.5951902095694693E-04
(PID.TID 0000.0001) %MON trcstat_ptracer0F_min        =   1.2731896066278951E-07
(PID.TID 0000.0001) %MON trcstat_ptracer0F_mean       =   1.5968268772422514E-05
(PID.TID 0000.0001) %MON trcstat_ptracer0F_sd         =   7.9373228750340922E-05
(PID.TID 0000.0001) %MON trcstat_ptracer0F_del2       =   0.0000000000000000E+00
(PID.TID 0000.0001) %MON trcstat_ptracer0G_max        =   4.5951898502505204E-04
(PID.TID 0000.0001) %MON trcstat_ptracer0G_min        =   1.2731896066278879E-07
(PID.TID 0000.0001) %MON trcstat_ptracer0G_mean       =   1.5968267692706364E-05
(PID.TID 0000.0001) %MON trcstat_ptracer0G_sd         =   7.9373222904174936E-05
(PID.TID 0000.0001) %MON trcstat_ptracer0G_del2       =   0.0000000000000000E+00
(PID.TID 0000.0001) %MON trcstat_ptracer0H_max        =   4.5951895532394448E-04
(PID.TID 0000.0001) %MON trcstat_ptracer0H_min        =   1.2731896066278818E-07
(PID.TID 0000.0001) %MON trcstat_ptracer0H_mean       =   1.5968266801086307E-05
(PID.TID 0000.0001) %MON trcstat_ptracer0H_sd         =   7.9373218076554049E-05
(PID.TID 0000.0001) %MON trcstat_ptracer0H_del2       =   0.0000000000000000E+00
(PID.TID 0000.0001) %MON trcstat_ptracer0I_max        =   5.4385460905057303E-07
(PID.TID 0000.0001) %MON trcstat_ptracer0I_min        =   1.5172632417128949E-10
(PID.TID 0000.0001) %MON trcstat_ptracer0I_mean       =   1.7452447506769833E-08
(PID.TID 0000.0001) %MON trcstat_ptracer0I_sd         =   8.6011268766054699E-08
(PID.TID 0000.0001) %MON trcstat_ptracer0I_del2       =   0.0000000000000000E+00
(PID.TID 0000.0001) %MON trcstat_ptracer0J_max        =   5.1645275077281250E-07
(PID.TID 0000.0001) %MON trcstat_ptracer0J_min        =   1.4402532439233257E-10
(PID.TID 0000.0001) %MON trcstat_ptracer0J_mean       =   1.6926286077847963E-08
(PID.TID 0000.0001) %MON trcstat_ptracer0J_sd         =   8.3551971804176025E-08
(PID.TID 0000.0001) %MON trcstat_ptracer0J_del2       =   0.0000000000000000E+00
(PID.TID 0000.0001) %MON trcstat_ptracer0K_max        =   4.9701091675597930E-07
(PID.TID 0000.0001) %MON trcstat_ptracer0K_min        =   1.3851463437973346E-10
(PID.TID 0000.0001) %MON trcstat_ptracer0K_mean       =   1.6569679480183989E-08
(PID.TID 0000.0001) %MON trcstat_ptracer0K_sd         =   8.1924507823352804E-08
(PID.TID 0000.0001) %MON trcstat_ptracer0K_del2       =   0.0000000000000000E+00
(PID.TID 0000.0001) %MON trcstat_ptracer0L_max        =   4.8342490832424648E-07
(PID.TID 0000.0001) %MON trcstat_ptracer0L_min        =   1.3461735162137221E-10
(PID.TID 0000.0001) %MON trcstat_ptracer0L_mean       =   1.6330064224063923E-08
(PID.TID 0000.0001) %MON trcstat_ptracer0L_sd         =   8.0855593379257254E-08
(PID.TID 0000.0001) %MON trcstat_ptracer0L_del2       =   0.0000000000000000E+00
(PID.TID 0000.0001) %MON trcstat_ptracer0M_max        =   1.8408630037210126E-07
(PID.TID 0000.0001) %MON trcstat_ptracer0M_min        =   5.1051786564970482E-11
(PID.TID 0000.0001) %MON trcstat_ptracer0M_mean       =   6.3772108901901376E-09
(PID.TID 0000.0001) %MON trcstat_ptracer0M_sd         =   3.1682009286136456E-08
(PID.TID 0000.0001) %MON trcstat_ptracer0M_del2       =   0.0000000000000000E+00
(PID.TID 0000.0001) %MON trcstat_ptracer0N_max        =   4.7411475724130857E-07
(PID.TID 0000.0001) %MON trcstat_ptracer0N_min        =   1.3190437275145300E-10
(PID.TID 0000.0001) %MON trcstat_ptracer0N_mean       =   1.6171015327146578E-08
(PID.TID 0000.0001) %MON trcstat_ptracer0N_sd         =   8.0160533122993034E-08
(PID.TID 0000.0001) %MON trcstat_ptracer0N_del2       =   0.0000000000000000E+00
(PID.TID 0000.0001) %MON trcstat_ptracer0O_max        =   4.6791275786066992E-07
(PID.TID 0000.0001) %MON trcstat_ptracer0O_min        =   1.3005383245620406E-10
(PID.TID 0000.0001) %MON trcstat_ptracer0O_mean       =   1.6067526867649547E-08
(PID.TID 0000.0001) %MON trcstat_ptracer0O_sd         =   7.9716397414365164E-08
(PID.TID 0000.0001) %MON trcstat_ptracer0O_del2       =   0.0000000000000000E+00
(PID.TID 0000.0001) %MON trcstat_ptracer0P_max        =   1.8367897756976659E-07
(PID.TID 0000.0001) %MON trcstat_ptracer0P_min        =   5.0931287452608886E-11
(PID.TID 0000.0001) %MON trcstat_ptracer0P_mean       =   6.3703961650159741E-09
(PID.TID 0000.0001) %MON trcstat_ptracer0P_sd         =   3.1652414422610834E-08
(PID.TID 0000.0001) %MON trcstat_ptracer0P_del2       =   0.0000000000000000E+00
(PID.TID 0000.0001) %MON trcstat_ptracer0Q_max        =   4.6788121480101628E-07
(PID.TID 0000.0001) %MON trcstat_ptracer0Q_min        =   1.3005383242865142E-10
(PID.TID 0000.0001) %MON trcstat_ptracer0Q_mean       =   1.6067030419936870E-08
(PID.TID 0000.0001) %MON trcstat_ptracer0Q_sd         =   7.9713768194116447E-08
(PID.TID 0000.0001) %MON trcstat_ptracer0Q_del2       =   0.0000000000000000E+00
(PID.TID 0000.0001) %MON trcstat_ptracer0R_max        =   4.6384766015597550E-07
(PID.TID 0000.0001) %MON trcstat_ptracer0R_min        =   1.2882224773873827E-10
(PID.TID 0000.0001) %MON trcstat_ptracer0R_mean       =   1.6000935473801645E-08
(PID.TID 0000.0001) %MON trcstat_ptracer0R_sd         =   7.9433774486512705E-08
(PID.TID 0000.0001) %MON trcstat_ptracer0R_del2       =   0.0000000000000000E+00
(PID.TID 0000.0001) %MON trcstat_ptracer0S_max        =   1.8341580433091733E-07
(PID.TID 0000.0001) %MON trcstat_ptracer0S_min        =   5.0851093350355646E-11
(PID.TID 0000.0001) %MON trcstat_ptracer0S_mean       =   6.3660956333558005E-09
(PID.TID 0000.0001) %MON trcstat_ptracer0S_sd         =   3.1633508042778339E-08
(PID.TID 0000.0001) %MON trcstat_ptracer0S_del2       =   0.0000000000000000E+00
(PID.TID 0000.0001) %MON trcstat_ptracer0T_max        =   4.6382860836531035E-07
(PID.TID 0000.0001) %MON trcstat_ptracer0T_min        =   1.2882224772161710E-10
(PID.TID 0000.0001) %MON trcstat_ptracer0T_mean       =   1.6000654548115342E-08
(PID.TID 0000.0001) %MON trcstat_ptracer0T_sd         =   7.9432296030678602E-08
(PID.TID 0000.0001) %MON trcstat_ptracer0T_del2       =   0.0000000000000000E+00
(PID.TID 0000.0001) %MON trcstat_ptracer0U_max        =   4.6127854433545054E-07
(PID.TID 0000.0001) %MON trcstat_ptracer0U_min        =   1.2802511061042742E-10
(PID.TID 0000.0001) %MON trcstat_ptracer0U_mean       =   1.5959325794899123E-08
(PID.TID 0000.0001) %MON trcstat_ptracer0U_sd         =   7.9257932131881811E-08
(PID.TID 0000.0001) %MON trcstat_ptracer0U_del2       =   0.0000000000000000E+00
(PID.TID 0000.0001) %MON trcstat_ptracer0V_max        =   1.8324962622265436E-07
(PID.TID 0000.0001) %MON trcstat_ptracer0V_min        =   5.0799190578945377E-11
(PID.TID 0000.0001) %MON trcstat_ptracer0V_mean       =   6.3634123925900850E-09
(PID.TID 0000.0001) %MON trcstat_ptracer0V_sd         =   3.1621091411504072E-08
(PID.TID 0000.0001) %MON trcstat_ptracer0V_del2       =   0.0000000000000000E+00
(PID.TID 0000.0001) %MON trcstat_ptracer0W_max        =   4.6126740869085730E-07
(PID.TID 0000.0001) %MON trcstat_ptracer0W_min        =   1.2802511060005512E-10
(PID.TID 0000.0001) %MON trcstat_ptracer0W_mean       =   1.5959172176582027E-08
(PID.TID 0000.0001) %MON trcstat_ptracer0W_sd         =   7.9257129214353543E-08
(PID.TID 0000.0001) %MON trcstat_ptracer0W_del2       =   0.0000000000000000E+00
(PID.TID 0000.0001) %MON trcstat_ptracer0X_max        =   4.5970222706230748E-07
(PID.TID 0000.0001) %MON trcstat_ptracer0X_min        =   1.2752415619661115E-10
(PID.TID 0000.0001) %MON trcstat_ptracer0X_mean       =   1.5933957428473643E-08
(PID.TID 0000.0001) %MON trcstat_ptracer0X_sd         =   7.9149409644269252E-08
(PID.TID 0000.0001) %MON trcstat_ptracer0X_del2       =   0.0000000000000000E+00
(PID.TID 0000.0001) %MON trcstat_ptracer0Y_max        =   1.8314779427631868E-07
(PID.TID 0000.0001) %MON trcstat_ptracer0Y_min        =   5.0766577368228501E-11
(PID.TID 0000.0001) %MON trcstat_ptracer0Y_mean       =   6.3617799589576244E-09
(PID.TID 0000.0001) %MON trcstat_ptracer0Y_sd         =   3.1612528503651463E-08
(PID.TID 0000.0001) %MON trcstat_ptracer0Y_del2       =   0.0000000000000000E+00
(PID.TID 0000.0001) %MON trcstat_ptracer0Z_max        =   4.5969588155003901E-07
(PID.TID 0000.0001) %MON trcstat_ptracer0Z_min        =   1.2752415619047771E-10
(PID.TID 0000.0001) %MON trcstat_ptracer0Z_mean       =   1.5933874460269079E-08
(PID.TID 0000.0001) %MON trcstat_ptracer0Z_sd         =   7.9148978716176153E-08
(PID.TID 0000.0001) %MON trcstat_ptracer0Z_del2       =   0.0000000000000000E+00
(PID.TID 0000.0001) %MON trcstat_ptracer1a_max        =   4.5876200048727245E-07
(PID.TID 0000.0001) %MON trcstat_ptracer1a_min        =   1.2721842014171219E-10
(PID.TID 0000.0001) %MON trcstat_ptracer1a_mean       =   1.5918868407150635E-08
(PID.TID 0000.0001) %MON trcstat_ptracer1a_sd         =   7.9081719750308845E-08
(PID.TID 0000.0001) %MON trcstat_ptracer1a_del2       =   0.0000000000000000E+00
(PID.TID 0000.0001) %MON trcstat_ptracer1b_max        =   4.5875846731547113E-07
(PID.TID 0000.0001) %MON trcstat_ptracer1b_min        =   1.2721842013816457E-10
(PID.TID 0000.0001) %MON trcstat_ptracer1b_mean       =   1.5918824155684562E-08
(PID.TID 0000.0001) %MON trcstat_ptracer1b_sd         =   7.9081491220177188E-08
(PID.TID 0000.0001) %MON trcstat_ptracer1b_del2       =   0.0000000000000000E+00
(PID.TID 0000.0001) %MON trcstat_ptracer1c_max        =   4.5821699569270263E-07
(PID.TID 0000.0001) %MON trcstat_ptracer1c_min        =   1.2703689207324498E-10
(PID.TID 0000.0001) %MON trcstat_ptracer1c_mean       =   1.5910150921130109E-08
(PID.TID 0000.0001) %MON trcstat_ptracer1c_sd         =   7.9037542006813707E-08
(PID.TID 0000.0001) %MON trcstat_ptracer1c_del2       =   0.0000000000000000E+00
(PID.TID 0000.0001) %MON trcstat_ptracer1d_max        =   4.5790510597683639E-07
(PID.TID 0000.0001) %MON trcstat_ptracer1d_min        =   1.2693176426948322E-10
(PID.TID 0000.0001) %MON trcstat_ptracer1d_mean       =   1.5905131805885603E-08
(PID.TID 0000.0001) %MON trcstat_ptracer1d_sd         =   7.9004512580463263E-08
(PID.TID 0000.0001) %MON trcstat_ptracer1d_del2       =   0.0000000000000000E+00
(PID.TID 0000.0001) %MON trcstat_ptracer1e_max        =   4.5773068992217480E-07
(PID.TID 0000.0001) %MON trcstat_ptracer1e_min        =   1.2687226092401082E-10
(PID.TID 0000.0001) %MON trcstat_ptracer1e_mean       =   1.5902317601189642E-08
(PID.TID 0000.0001) %MON trcstat_ptracer1e_sd         =   7.8975164824569041E-08
(PID.TID 0000.0001) %MON trcstat_ptracer1e_del2       =   0.0000000000000000E+00
(PID.TID 0000.0001) %MON trcstat_ptracer1f_max        =   4.5763463267353193E-07
(PID.TID 0000.0001) %MON trcstat_ptracer1f_min        =   1.2683941448444741E-10
(PID.TID 0000.0001) %MON trcstat_ptracer1f_mean       =   1.5900762696213574E-08
(PID.TID 0000.0001) %MON trcstat_ptracer1f_sd         =   7.8943691445820412E-08
(PID.TID 0000.0001) %MON trcstat_ptracer1f_del2       =   0.0000000000000000E+00
(PID.TID 0000.0001) %MON trcstat_ptracer1g_max        =   4.5952636535112865E-07
(PID.TID 0000.0001) %MON trcstat_ptracer1g_min        =   1.2731896066293855E-10
(PID.TID 0000.0001) %MON trcstat_ptracer1g_mean       =   1.5968483135491449E-08
(PID.TID 0000.0001) %MON trcstat_ptracer1g_sd         =   7.9374387894918811E-08
(PID.TID 0000.0001) %MON trcstat_ptracer1g_del2       =   0.0000000000000000E+00
(PID.TID 0000.0001) %MON trcstat_ptracer1h_max        =   4.5952497937002119E-07
(PID.TID 0000.0001) %MON trcstat_ptracer1h_min        =   1.2731896066291030E-10
(PID.TID 0000.0001) %MON trcstat_ptracer1h_mean       =   1.5968443904818925E-08
(PID.TID 0000.0001) %MON trcstat_ptracer1h_sd         =   7.9374176006148026E-08
(PID.TID 0000.0001) %MON trcstat_ptracer1h_del2       =   0.0000000000000000E+00
(PID.TID 0000.0001) %MON trcstat_ptracer1i_max        =   4.5952386886151396E-07
(PID.TID 0000.0001) %MON trcstat_ptracer1i_min        =   1.2731896066288771E-10
(PID.TID 0000.0001) %MON trcstat_ptracer1i_mean       =   1.5968411992422837E-08
(PID.TID 0000.0001) %MON trcstat_ptracer1i_sd         =   7.9374003552523963E-08
(PID.TID 0000.0001) %MON trcstat_ptracer1i_del2       =   0.0000000000000000E+00
(PID.TID 0000.0001) %MON trcstat_ptracer1j_max        =   4.5952297114859372E-07
(PID.TID 0000.0001) %MON trcstat_ptracer1j_min        =   1.2731896066286943E-10
(PID.TID 0000.0001) %MON trcstat_ptracer1j_mean       =   1.5968385886332392E-08
(PID.TID 0000.0001) %MON trcstat_ptracer1j_sd         =   7.9373862415335018E-08
(PID.TID 0000.0001) %MON trcstat_ptracer1j_del2       =   0.0000000000000000E+00
(PID.TID 0000.0001) %MON trcstat_ptracer1k_max        =   4.5952406353364616E-07
(PID.TID 0000.0001) %MON trcstat_ptracer1k_min        =   1.2731896066289174E-10
(PID.TID 0000.0001) %MON trcstat_ptracer1k_mean       =   1.5968418800548046E-08
(PID.TID 0000.0001) %MON trcstat_ptracer1k_sd         =   7.9374040606176210E-08
(PID.TID 0000.0001) %MON trcstat_ptracer1k_del2       =   0.0000000000000000E+00
(PID.TID 0000.0001) %MON trcstat_ptracer1l_max        =   4.5953253471662806E-07
(PID.TID 0000.0001) %MON trcstat_ptracer1l_min        =   1.2731896066307317E-10
(PID.TID 0000.0001) %MON trcstat_ptracer1l_mean       =   1.5968673345894530E-08
(PID.TID 0000.0001) %MON trcstat_ptracer1l_sd         =   7.9375417706316381E-08
(PID.TID 0000.0001) %MON trcstat_ptracer1l_del2       =   0.0000000000000000E+00
(PID.TID 0000.0001) %MON trcstat_ptracer1m_max        =   4.5953015494799860E-07
(PID.TID 0000.0001) %MON trcstat_ptracer1m_min        =   1.2731896066302310E-10
(PID.TID 0000.0001) %MON trcstat_ptracer1m_mean       =   1.5968602291296031E-08
(PID.TID 0000.0001) %MON trcstat_ptracer1m_sd         =   7.9375033321874116E-08
(PID.TID 0000.0001) %MON trcstat_ptracer1m_del2       =   0.0000000000000000E+00
(PID.TID 0000.0001) %MON trcstat_ptracer1n_max        =   4.5952819311970989E-07
(PID.TID 0000.0001) %MON trcstat_ptracer1n_min        =   1.2731896066298193E-10
(PID.TID 0000.0001) %MON trcstat_ptracer1n_mean       =   1.5968543500696417E-08
(PID.TID 0000.0001) %MON trcstat_ptracer1n_sd         =   7.9374715229667100E-08
(PID.TID 0000.0001) %MON trcstat_ptracer1n_del2       =   0.0000000000000000E+00
(PID.TID 0000.0001) %MON trcstat_ptracer1o_max        =   4.5952657339258981E-07
(PID.TID 0000.0001) %MON trcstat_ptracer1o_min        =   1.2731896066294793E-10
(PID.TID 0000.0001) %MON trcstat_ptracer1o_mean       =   1.5968494927072601E-08
(PID.TID 0000.0001) %MON trcstat_ptracer1o_sd         =   7.9374452401988554E-08
(PID.TID 0000.0001) %MON trcstat_ptracer1o_del2       =   0.0000000000000000E+00
(PID.TID 0000.0001) %MON trcstat_ptracer1p_max        =   4.5952392879084855E-07
(PID.TID 0000.0001) %MON trcstat_ptracer1p_min        =   1.2731896066289210E-10
(PID.TID 0000.0001) %MON trcstat_ptracer1p_mean       =   1.5968415681662587E-08
(PID.TID 0000.0001) %MON trcstat_ptracer1p_sd         =   7.9374023648078802E-08
(PID.TID 0000.0001) %MON trcstat_ptracer1p_del2       =   0.0000000000000000E+00
(PID.TID 0000.0001) %MON trcstat_ptracer1q_max        =   4.5951991256007584E-07
(PID.TID 0000.0001) %MON trcstat_ptracer1q_min        =   1.2731896066280742E-10
(PID.TID 0000.0001) %MON trcstat_ptracer1q_mean       =   1.5968295484747995E-08
(PID.TID 0000.0001) %MON trcstat_ptracer1q_sd         =   7.9373373358118762E-08
(PID.TID 0000.0001) %MON trcstat_ptracer1q_del2       =   0.0000000000000000E+00
(PID.TID 0000.0001) %MON trcstat_ptracer1r_max        =   4.5951972296489443E-07
(PID.TID 0000.0001) %MON trcstat_ptracer1r_min        =   1.2731896066280362E-10
(PID.TID 0000.0001) %MON trcstat_ptracer1r_mean       =   1.5968289783248306E-08
(PID.TID 0000.0001) %MON trcstat_ptracer1r_sd         =   7.9373342487197802E-08
(PID.TID 0000.0001) %MON trcstat_ptracer1r_del2       =   0.0000000000000000E+00
(PID.TID 0000.0001) %MON trcstat_ptracer1s_max        =   4.5951956608687227E-07
(PID.TID 0000.0001) %MON trcstat_ptracer1s_min        =   1.2731896066280049E-10
(PID.TID 0000.0001) %MON trcstat_ptracer1s_mean       =   1.5968285070130896E-08
(PID.TID 0000.0001) %MON trcstat_ptracer1s_sd         =   7.9373316968258940E-08
(PID.TID 0000.0001) %MON trcstat_ptracer1s_del2       =   0.0000000000000000E+00
(PID.TID 0000.0001) %MON trcstat_ptracer1t_max        =   4.5951943626318525E-07
(PID.TID 0000.0001) %MON trcstat_ptracer1t_min        =   1.2731896066279783E-10
(PID.TID 0000.0001) %MON trcstat_ptracer1t_mean       =   1.5968281173239425E-08
(PID.TID 0000.0001) %MON trcstat_ptracer1t_sd         =   7.9373295868967054E-08
(PID.TID 0000.0001) %MON trcstat_ptracer1t_del2       =   0.0000000000000000E+00
(PID.TID 0000.0001) %MON trcstat_ptracer1u_max        =   0.0000000000000000E+00
(PID.TID 0000.0001) %MON trcstat_ptracer1u_min        =   0.0000000000000000E+00
(PID.TID 0000.0001) %MON trcstat_ptracer1u_mean       =   0.0000000000000000E+00
(PID.TID 0000.0001) %MON trcstat_ptracer1u_sd         =   0.0000000000000000E+00
(PID.TID 0000.0001) %MON trcstat_ptracer1u_del2       =   0.0000000000000000E+00
(PID.TID 0000.0001) %MON trcstat_ptracer1v_max        =   0.0000000000000000E+00
(PID.TID 0000.0001) %MON trcstat_ptracer1v_min        =   0.0000000000000000E+00
(PID.TID 0000.0001) %MON trcstat_ptracer1v_mean       =   0.0000000000000000E+00
(PID.TID 0000.0001) %MON trcstat_ptracer1v_sd         =   0.0000000000000000E+00
(PID.TID 0000.0001) %MON trcstat_ptracer1v_del2       =   0.0000000000000000E+00
(PID.TID 0000.0001) %MON trcstat_ptracer1w_max        =   0.0000000000000000E+00
(PID.TID 0000.0001) %MON trcstat_ptracer1w_min        =   0.0000000000000000E+00
(PID.TID 0000.0001) %MON trcstat_ptracer1w_mean       =   0.0000000000000000E+00
(PID.TID 0000.0001) %MON trcstat_ptracer1w_sd         =   0.0000000000000000E+00
(PID.TID 0000.0001) %MON trcstat_ptracer1w_del2       =   0.0000000000000000E+00
(PID.TID 0000.0001) %MON trcstat_ptracer1x_max        =   0.0000000000000000E+00
(PID.TID 0000.0001) %MON trcstat_ptracer1x_min        =   0.0000000000000000E+00
(PID.TID 0000.0001) %MON trcstat_ptracer1x_mean       =   0.0000000000000000E+00
(PID.TID 0000.0001) %MON trcstat_ptracer1x_sd         =   0.0000000000000000E+00
(PID.TID 0000.0001) %MON trcstat_ptracer1x_del2       =   0.0000000000000000E+00
(PID.TID 0000.0001) %MON trcstat_ptracer1y_max        =   0.0000000000000000E+00
(PID.TID 0000.0001) %MON trcstat_ptracer1y_min        =   0.0000000000000000E+00
(PID.TID 0000.0001) %MON trcstat_ptracer1y_mean       =   0.0000000000000000E+00
(PID.TID 0000.0001) %MON trcstat_ptracer1y_sd         =   0.0000000000000000E+00
(PID.TID 0000.0001) %MON trcstat_ptracer1y_del2       =   0.0000000000000000E+00
(PID.TID 0000.0001) %MON trcstat_ptracer1z_max        =   0.0000000000000000E+00
(PID.TID 0000.0001) %MON trcstat_ptracer1z_min        =   0.0000000000000000E+00
(PID.TID 0000.0001) %MON trcstat_ptracer1z_mean       =   0.0000000000000000E+00
(PID.TID 0000.0001) %MON trcstat_ptracer1z_sd         =   0.0000000000000000E+00
(PID.TID 0000.0001) %MON trcstat_ptracer1z_del2       =   0.0000000000000000E+00
(PID.TID 0000.0001) %MON trcstat_ptracer1A_max        =   7.3203911025028212E-03
(PID.TID 0000.0001) %MON trcstat_ptracer1A_min        =   2.0287718107355007E-06
(PID.TID 0000.0001) %MON trcstat_ptracer1A_mean       =   2.5437705546651514E-04
(PID.TID 0000.0001) %MON trcstat_ptracer1A_sd         =   1.2642941451295932E-03
(PID.TID 0000.0001) %MON trcstat_ptracer1A_del2       =   0.0000000000000000E+00
(PID.TID 0000.0001) %MON trcstat_ptracer1B_max        =   0.0000000000000000E+00
(PID.TID 0000.0001) %MON trcstat_ptracer1B_min        =   0.0000000000000000E+00
(PID.TID 0000.0001) %MON trcstat_ptracer1B_mean       =   0.0000000000000000E+00
(PID.TID 0000.0001) %MON trcstat_ptracer1B_sd         =   0.0000000000000000E+00
(PID.TID 0000.0001) %MON trcstat_ptracer1B_del2       =   0.0000000000000000E+00
(PID.TID 0000.0001) %MON trcstat_ptracer1C_max        =   0.0000000000000000E+00
(PID.TID 0000.0001) %MON trcstat_ptracer1C_min        =   0.0000000000000000E+00
(PID.TID 0000.0001) %MON trcstat_ptracer1C_mean       =   0.0000000000000000E+00
(PID.TID 0000.0001) %MON trcstat_ptracer1C_sd         =   0.0000000000000000E+00
(PID.TID 0000.0001) %MON trcstat_ptracer1C_del2       =   0.0000000000000000E+00
(PID.TID 0000.0001) %MON trcstat_ptracer1D_max        =   7.3204254206144462E-03
(PID.TID 0000.0001) %MON trcstat_ptracer1D_min        =   2.0287719116052857E-06
(PID.TID 0000.0001) %MON trcstat_ptracer1D_mean       =   2.5437808833286271E-04
(PID.TID 0000.0001) %MON trcstat_ptracer1D_sd         =   1.2642600141057939E-03
(PID.TID 0000.0001) %MON trcstat_ptracer1D_del2       =   0.0000000000000000E+00
(PID.TID 0000.0001) %MON trcstat_ptracer1E_max        =   0.0000000000000000E+00
(PID.TID 0000.0001) %MON trcstat_ptracer1E_min        =   0.0000000000000000E+00
(PID.TID 0000.0001) %MON trcstat_ptracer1E_mean       =   0.0000000000000000E+00
(PID.TID 0000.0001) %MON trcstat_ptracer1E_sd         =   0.0000000000000000E+00
(PID.TID 0000.0001) %MON trcstat_ptracer1E_del2       =   0.0000000000000000E+00
(PID.TID 0000.0001) %MON trcstat_ptracer1F_max        =   0.0000000000000000E+00
(PID.TID 0000.0001) %MON trcstat_ptracer1F_min        =   0.0000000000000000E+00
(PID.TID 0000.0001) %MON trcstat_ptracer1F_mean       =   0.0000000000000000E+00
(PID.TID 0000.0001) %MON trcstat_ptracer1F_sd         =   0.0000000000000000E+00
(PID.TID 0000.0001) %MON trcstat_ptracer1F_del2       =   0.0000000000000000E+00
(PID.TID 0000.0001) %MON trcstat_ptracer1G_max        =   7.3204538095266013E-03
(PID.TID 0000.0001) %MON trcstat_ptracer1G_min        =   2.0287720946827663E-06
(PID.TID 0000.0001) %MON trcstat_ptracer1G_mean       =   2.5437894531882673E-04
(PID.TID 0000.0001) %MON trcstat_ptracer1G_sd         =   1.2642091839243535E-03
(PID.TID 0000.0001) %MON trcstat_ptracer1G_del2       =   0.0000000000000000E+00
(PID.TID 0000.0001) %MON trcstat_ptracer1H_max        =   0.0000000000000000E+00
(PID.TID 0000.0001) %MON trcstat_ptracer1H_min        =   0.0000000000000000E+00
(PID.TID 0000.0001) %MON trcstat_ptracer1H_mean       =   0.0000000000000000E+00
(PID.TID 0000.0001) %MON trcstat_ptracer1H_sd         =   0.0000000000000000E+00
(PID.TID 0000.0001) %MON trcstat_ptracer1H_del2       =   0.0000000000000000E+00
(PID.TID 0000.0001) %MON trcstat_ptracer1I_max        =   0.0000000000000000E+00
(PID.TID 0000.0001) %MON trcstat_ptracer1I_min        =   0.0000000000000000E+00
(PID.TID 0000.0001) %MON trcstat_ptracer1I_mean       =   0.0000000000000000E+00
(PID.TID 0000.0001) %MON trcstat_ptracer1I_sd         =   0.0000000000000000E+00
(PID.TID 0000.0001) %MON trcstat_ptracer1I_del2       =   0.0000000000000000E+00
(PID.TID 0000.0001) %MON trcstat_ptracer1J_max        =   7.3204772785309090E-03
(PID.TID 0000.0001) %MON trcstat_ptracer1J_min        =   2.0287724327783114E-06
(PID.TID 0000.0001) %MON trcstat_ptracer1J_mean       =   2.5437965527380483E-04
(PID.TID 0000.0001) %MON trcstat_ptracer1J_sd         =   1.2641355897995827E-03
(PID.TID 0000.0001) %MON trcstat_ptracer1J_del2       =   0.0000000000000000E+00
(PID.TID 0000.0001) %MON trcstat_ptracer1K_max        =   0.0000000000000000E+00
(PID.TID 0000.0001) %MON trcstat_ptracer1K_min        =   0.0000000000000000E+00
(PID.TID 0000.0001) %MON trcstat_ptracer1K_mean       =   0.0000000000000000E+00
(PID.TID 0000.0001) %MON trcstat_ptracer1K_sd         =   0.0000000000000000E+00
(PID.TID 0000.0001) %MON trcstat_ptracer1K_del2       =   0.0000000000000000E+00
(PID.TID 0000.0001) %MON trcstat_ptracer1L_max        =   0.0000000000000000E+00
(PID.TID 0000.0001) %MON trcstat_ptracer1L_min        =   0.0000000000000000E+00
(PID.TID 0000.0001) %MON trcstat_ptracer1L_mean       =   0.0000000000000000E+00
(PID.TID 0000.0001) %MON trcstat_ptracer1L_sd         =   0.0000000000000000E+00
(PID.TID 0000.0001) %MON trcstat_ptracer1L_del2       =   0.0000000000000000E+00
(PID.TID 0000.0001) %MON trcstat_ptracer1M_max        =   7.3205007917324484E-03
(PID.TID 0000.0001) %MON trcstat_ptracer1M_min        =   2.0287730658906246E-06
(PID.TID 0000.0001) %MON trcstat_ptracer1M_mean       =   2.5438036761464306E-04
(PID.TID 0000.0001) %MON trcstat_ptracer1M_sd         =   1.2640313833769397E-03
(PID.TID 0000.0001) %MON trcstat_ptracer1M_del2       =   0.0000000000000000E+00
(PID.TID 0000.0001) %MON trcstat_ptracer1N_max        =   0.0000000000000000E+00
(PID.TID 0000.0001) %MON trcstat_ptracer1N_min        =   0.0000000000000000E+00
(PID.TID 0000.0001) %MON trcstat_ptracer1N_mean       =   0.0000000000000000E+00
(PID.TID 0000.0001) %MON trcstat_ptracer1N_sd         =   0.0000000000000000E+00
(PID.TID 0000.0001) %MON trcstat_ptracer1N_del2       =   0.0000000000000000E+00
(PID.TID 0000.0001) %MON trcstat_ptracer1O_max        =   7.3205516774191137E-03
(PID.TID 0000.0001) %MON trcstat_ptracer1O_min        =   2.0287742643626434E-06
(PID.TID 0000.0001) %MON trcstat_ptracer1O_mean       =   2.5438189981702512E-04
(PID.TID 0000.0001) %MON trcstat_ptracer1O_sd         =   1.2638889602546886E-03
(PID.TID 0000.0001) %MON trcstat_ptracer1O_del2       =   0.0000000000000000E+00
(PID.TID 0000.0001) %MON trcstat_ptracer1P_max        =   7.3205581051672738E-03
(PID.TID 0000.0001) %MON trcstat_ptracer1P_min        =   2.0287765518735020E-06
(PID.TID 0000.0001) %MON trcstat_ptracer1P_mean       =   2.5438210639923420E-04
(PID.TID 0000.0001) %MON trcstat_ptracer1P_sd         =   1.2636800578347657E-03
(PID.TID 0000.0001) %MON trcstat_ptracer1P_del2       =   0.0000000000000000E+00
(PID.TID 0000.0001) %MON trcstat_ptracer1Q_max        =   7.3205633083259572E-03
(PID.TID 0000.0001) %MON trcstat_ptracer1Q_min        =   2.0287809451647748E-06
(PID.TID 0000.0001) %MON trcstat_ptracer1Q_mean       =   2.5438228121063572E-04
(PID.TID 0000.0001) %MON trcstat_ptracer1Q_sd         =   1.2633886597584344E-03
(PID.TID 0000.0001) %MON trcstat_ptracer1Q_del2       =   0.0000000000000000E+00
(PID.TID 0000.0001) %MON trcstat_ptracer1R_max        =   7.3205674511998978E-03
(PID.TID 0000.0001) %MON trcstat_ptracer1R_min        =   2.0287894215322154E-06
(PID.TID 0000.0001) %MON trcstat_ptracer1R_mean       =   2.5438243136768093E-04
(PID.TID 0000.0001) %MON trcstat_ptracer1R_sd         =   1.2629831792612270E-03
(PID.TID 0000.0001) %MON trcstat_ptracer1R_del2       =   0.0000000000000000E+00
(PID.TID 0000.0001) %MON trcstat_ptracer1S_max        =   0.0000000000000000E+00
(PID.TID 0000.0001) %MON trcstat_ptracer1S_min        =   0.0000000000000000E+00
(PID.TID 0000.0001) %MON trcstat_ptracer1S_mean       =   0.0000000000000000E+00
(PID.TID 0000.0001) %MON trcstat_ptracer1S_sd         =   0.0000000000000000E+00
(PID.TID 0000.0001) %MON trcstat_ptracer1S_del2       =   0.0000000000000000E+00
(PID.TID 0000.0001) %MON trcstat_ptracer1T_max        =   0.0000000000000000E+00
(PID.TID 0000.0001) %MON trcstat_ptracer1T_min        =   0.0000000000000000E+00
(PID.TID 0000.0001) %MON trcstat_ptracer1T_mean       =   0.0000000000000000E+00
(PID.TID 0000.0001) %MON trcstat_ptracer1T_sd         =   0.0000000000000000E+00
(PID.TID 0000.0001) %MON trcstat_ptracer1T_del2       =   0.0000000000000000E+00
(PID.TID 0000.0001) %MON trcstat_ptracer1U_max        =   0.0000000000000000E+00
(PID.TID 0000.0001) %MON trcstat_ptracer1U_min        =   0.0000000000000000E+00
(PID.TID 0000.0001) %MON trcstat_ptracer1U_mean       =   0.0000000000000000E+00
(PID.TID 0000.0001) %MON trcstat_ptracer1U_sd         =   0.0000000000000000E+00
(PID.TID 0000.0001) %MON trcstat_ptracer1U_del2       =   0.0000000000000000E+00
(PID.TID 0000.0001) %MON trcstat_ptracer1V_max        =   0.0000000000000000E+00
(PID.TID 0000.0001) %MON trcstat_ptracer1V_min        =   0.0000000000000000E+00
(PID.TID 0000.0001) %MON trcstat_ptracer1V_mean       =   0.0000000000000000E+00
(PID.TID 0000.0001) %MON trcstat_ptracer1V_sd         =   0.0000000000000000E+00
(PID.TID 0000.0001) %MON trcstat_ptracer1V_del2       =   0.0000000000000000E+00
(PID.TID 0000.0001) %MON trcstat_ptracer1W_max        =   0.0000000000000000E+00
(PID.TID 0000.0001) %MON trcstat_ptracer1W_min        =   0.0000000000000000E+00
(PID.TID 0000.0001) %MON trcstat_ptracer1W_mean       =   0.0000000000000000E+00
(PID.TID 0000.0001) %MON trcstat_ptracer1W_sd         =   0.0000000000000000E+00
(PID.TID 0000.0001) %MON trcstat_ptracer1W_del2       =   0.0000000000000000E+00
(PID.TID 0000.0001) %MON trcstat_ptracer1X_max        =   0.0000000000000000E+00
(PID.TID 0000.0001) %MON trcstat_ptracer1X_min        =   0.0000000000000000E+00
(PID.TID 0000.0001) %MON trcstat_ptracer1X_mean       =   0.0000000000000000E+00
(PID.TID 0000.0001) %MON trcstat_ptracer1X_sd         =   0.0000000000000000E+00
(PID.TID 0000.0001) %MON trcstat_ptracer1X_del2       =   0.0000000000000000E+00
(PID.TID 0000.0001) %MON trcstat_ptracer1Y_max        =   0.0000000000000000E+00
(PID.TID 0000.0001) %MON trcstat_ptracer1Y_min        =   0.0000000000000000E+00
(PID.TID 0000.0001) %MON trcstat_ptracer1Y_mean       =   0.0000000000000000E+00
(PID.TID 0000.0001) %MON trcstat_ptracer1Y_sd         =   0.0000000000000000E+00
(PID.TID 0000.0001) %MON trcstat_ptracer1Y_del2       =   0.0000000000000000E+00
(PID.TID 0000.0001) %MON trcstat_ptracer1Z_max        =   0.0000000000000000E+00
(PID.TID 0000.0001) %MON trcstat_ptracer1Z_min        =   0.0000000000000000E+00
(PID.TID 0000.0001) %MON trcstat_ptracer1Z_mean       =   0.0000000000000000E+00
(PID.TID 0000.0001) %MON trcstat_ptracer1Z_sd         =   0.0000000000000000E+00
(PID.TID 0000.0001) %MON trcstat_ptracer1Z_del2       =   0.0000000000000000E+00
(PID.TID 0000.0001) %MON trcstat_ptracer2a_max        =   0.0000000000000000E+00
(PID.TID 0000.0001) %MON trcstat_ptracer2a_min        =   0.0000000000000000E+00
(PID.TID 0000.0001) %MON trcstat_ptracer2a_mean       =   0.0000000000000000E+00
(PID.TID 0000.0001) %MON trcstat_ptracer2a_sd         =   0.0000000000000000E+00
(PID.TID 0000.0001) %MON trcstat_ptracer2a_del2       =   0.0000000000000000E+00
(PID.TID 0000.0001) %MON trcstat_ptracer2b_max        =   0.0000000000000000E+00
(PID.TID 0000.0001) %MON trcstat_ptracer2b_min        =   0.0000000000000000E+00
(PID.TID 0000.0001) %MON trcstat_ptracer2b_mean       =   0.0000000000000000E+00
(PID.TID 0000.0001) %MON trcstat_ptracer2b_sd         =   0.0000000000000000E+00
(PID.TID 0000.0001) %MON trcstat_ptracer2b_del2       =   0.0000000000000000E+00
(PID.TID 0000.0001) %MON trcstat_ptracer2c_max        =   0.0000000000000000E+00
(PID.TID 0000.0001) %MON trcstat_ptracer2c_min        =   0.0000000000000000E+00
(PID.TID 0000.0001) %MON trcstat_ptracer2c_mean       =   0.0000000000000000E+00
(PID.TID 0000.0001) %MON trcstat_ptracer2c_sd         =   0.0000000000000000E+00
(PID.TID 0000.0001) %MON trcstat_ptracer2c_del2       =   0.0000000000000000E+00
(PID.TID 0000.0001) %MON trcstat_ptracer2d_max        =   0.0000000000000000E+00
(PID.TID 0000.0001) %MON trcstat_ptracer2d_min        =   0.0000000000000000E+00
(PID.TID 0000.0001) %MON trcstat_ptracer2d_mean       =   0.0000000000000000E+00
(PID.TID 0000.0001) %MON trcstat_ptracer2d_sd         =   0.0000000000000000E+00
(PID.TID 0000.0001) %MON trcstat_ptracer2d_del2       =   0.0000000000000000E+00
(PID.TID 0000.0001) %MON trcstat_ptracer2e_max        =   0.0000000000000000E+00
(PID.TID 0000.0001) %MON trcstat_ptracer2e_min        =   0.0000000000000000E+00
(PID.TID 0000.0001) %MON trcstat_ptracer2e_mean       =   0.0000000000000000E+00
(PID.TID 0000.0001) %MON trcstat_ptracer2e_sd         =   0.0000000000000000E+00
(PID.TID 0000.0001) %MON trcstat_ptracer2e_del2       =   0.0000000000000000E+00
(PID.TID 0000.0001) %MON trcstat_ptracer2f_max        =   0.0000000000000000E+00
(PID.TID 0000.0001) %MON trcstat_ptracer2f_min        =   0.0000000000000000E+00
(PID.TID 0000.0001) %MON trcstat_ptracer2f_mean       =   0.0000000000000000E+00
(PID.TID 0000.0001) %MON trcstat_ptracer2f_sd         =   0.0000000000000000E+00
(PID.TID 0000.0001) %MON trcstat_ptracer2f_del2       =   0.0000000000000000E+00
(PID.TID 0000.0001) %MON trcstat_ptracer2g_max        =   1.2560461165561755E-02
(PID.TID 0000.0001) %MON trcstat_ptracer2g_min        =   4.5300580053053953E-06
(PID.TID 0000.0001) %MON trcstat_ptracer2g_mean       =   3.0863593091923637E-04
(PID.TID 0000.0001) %MON trcstat_ptracer2g_sd         =   1.5910015977675042E-03
(PID.TID 0000.0001) %MON trcstat_ptracer2g_del2       =   0.0000000000000000E+00
(PID.TID 0000.0001) %MON trcstat_ptracer2h_max        =   1.2801554204371408E-02
(PID.TID 0000.0001) %MON trcstat_ptracer2h_min        =   4.5328765348333161E-06
(PID.TID 0000.0001) %MON trcstat_ptracer2h_mean       =   3.1656681422704972E-04
(PID.TID 0000.0001) %MON trcstat_ptracer2h_sd         =   1.6276267362399144E-03
(PID.TID 0000.0001) %MON trcstat_ptracer2h_del2       =   0.0000000000000000E+00
(PID.TID 0000.0001) %MON trcstat_ptracer2i_max        =   1.3031793424596805E-02
(PID.TID 0000.0001) %MON trcstat_ptracer2i_min        =   4.5355189381567586E-06
(PID.TID 0000.0001) %MON trcstat_ptracer2i_mean       =   3.2448119207943488E-04
(PID.TID 0000.0001) %MON trcstat_ptracer2i_sd         =   1.6639961407524102E-03
(PID.TID 0000.0001) %MON trcstat_ptracer2i_del2       =   0.0000000000000000E+00
(PID.TID 0000.0001) %MON trcstat_ptracer2j_max        =   1.3251143026642438E-02
(PID.TID 0000.0001) %MON trcstat_ptracer2j_min        =   4.5380271995305227E-06
(PID.TID 0000.0001) %MON trcstat_ptracer2j_mean       =   3.3237040091730767E-04
(PID.TID 0000.0001) %MON trcstat_ptracer2j_sd         =   1.7000846745465370E-03
(PID.TID 0000.0001) %MON trcstat_ptracer2j_del2       =   0.0000000000000000E+00
(PID.TID 0000.0001) %MON trcstat_ptracer2k_max        =   1.3060619852587334E-03
(PID.TID 0000.0001) %MON trcstat_ptracer2k_min        =   4.5362891317226871E-07
(PID.TID 0000.0001) %MON trcstat_ptracer2k_mean       =   3.2551695536744872E-05
(PID.TID 0000.0001) %MON trcstat_ptracer2k_sd         =   1.6687233349670338E-04
(PID.TID 0000.0001) %MON trcstat_ptracer2k_del2       =   0.0000000000000000E+00
(PID.TID 0000.0001) %MON trcstat_ptracer2l_max        =   1.5274079572411116E-02
(PID.TID 0000.0001) %MON trcstat_ptracer2l_min        =   4.5567587447174644E-06
(PID.TID 0000.0001) %MON trcstat_ptracer2l_mean       =   4.3323637888068478E-04
(PID.TID 0000.0001) %MON trcstat_ptracer2l_sd         =   2.1556687502286404E-03
(PID.TID 0000.0001) %MON trcstat_ptracer2l_del2       =   0.0000000000000000E+00
(PID.TID 0000.0001) %MON trcstat_ptracer2m_max        =   1.6244821119973621E-02
(PID.TID 0000.0001) %MON trcstat_ptracer2m_min        =   4.5624533838947860E-06
(PID.TID 0000.0001) %MON trcstat_ptracer2m_mean       =   4.9447207589925501E-04
(PID.TID 0000.0001) %MON trcstat_ptracer2m_sd         =   2.4442641293237468E-03
(PID.TID 0000.0001) %MON trcstat_ptracer2m_del2       =   0.0000000000000000E+00
(PID.TID 0000.0001) %MON trcstat_ptracer2n_max        =   1.2556071228946547E-03
(PID.TID 0000.0001) %MON trcstat_ptracer2n_min        =   4.5311180679249366E-07
(PID.TID 0000.0001) %MON trcstat_ptracer2n_mean       =   3.0854287094979869E-05
(PID.TID 0000.0001) %MON trcstat_ptracer2n_sd         =   1.5905227270821836E-04
(PID.TID 0000.0001) %MON trcstat_ptracer2n_del2       =   0.0000000000000000E+00
(PID.TID 0000.0001) %MON trcstat_ptracer2o_max        =   1.5061609652400837E-02
(PID.TID 0000.0001) %MON trcstat_ptracer2o_min        =   4.5555299289729054E-06
(PID.TID 0000.0001) %MON trcstat_ptracer2o_mean       =   4.1877359816832292E-04
(PID.TID 0000.0001) %MON trcstat_ptracer2o_sd         =   2.0900479318929186E-03
(PID.TID 0000.0001) %MON trcstat_ptracer2o_del2       =   0.0000000000000000E+00
(PID.TID 0000.0001) %MON trcstat_ptracer2p_max        =   1.5766009127927128E-02
(PID.TID 0000.0001) %MON trcstat_ptracer2p_min        =   4.5618568681558500E-06
(PID.TID 0000.0001) %MON trcstat_ptracer2p_mean       =   4.7440114078218219E-04
(PID.TID 0000.0001) %MON trcstat_ptracer2p_sd         =   2.3459789599637538E-03
(PID.TID 0000.0001) %MON trcstat_ptracer2p_del2       =   0.0000000000000000E+00
(PID.TID 0000.0001) %MON trcstat_ptracer2q_max        =   1.2002394711802180E-03
(PID.TID 0000.0001) %MON trcstat_ptracer2q_min        =   4.5251958498504829E-07
(PID.TID 0000.0001) %MON trcstat_ptracer2q_mean       =   2.9153699882165691E-05
(PID.TID 0000.0001) %MON trcstat_ptracer2q_sd         =   1.5112968795647676E-04
(PID.TID 0000.0001) %MON trcstat_ptracer2q_del2       =   0.0000000000000000E+00
(PID.TID 0000.0001) %MON trcstat_ptracer2r_max        =   1.4815641235598559E-02
(PID.TID 0000.0001) %MON trcstat_ptracer2r_min        =   4.5543095948420503E-06
(PID.TID 0000.0001) %MON trcstat_ptracer2r_mean       =   4.0370227824558849E-04
(PID.TID 0000.0001) %MON trcstat_ptracer2r_sd         =   2.0220485857319007E-03
(PID.TID 0000.0001) %MON trcstat_ptracer2r_del2       =   0.0000000000000000E+00
(PID.TID 0000.0001) %MON trcstat_ptracer2s_max        =   1.5636138172527753E-02
(PID.TID 0000.0001) %MON trcstat_ptracer2s_min        =   4.5614341468374251E-06
(PID.TID 0000.0001) %MON trcstat_ptracer2s_mean       =   4.6217973385804579E-04
(PID.TID 0000.0001) %MON trcstat_ptracer2s_sd         =   2.2886641076602706E-03
(PID.TID 0000.0001) %MON trcstat_ptracer2s_del2       =   0.0000000000000000E+00
(PID.TID 0000.0001) %MON trcstat_ptracer2t_max        =   1.1401679339953221E-03
(PID.TID 0000.0001) %MON trcstat_ptracer2t_min        =   4.5185818982005820E-07
(PID.TID 0000.0001) %MON trcstat_ptracer2t_mean       =   2.7457926626751253E-05
(PID.TID 0000.0001) %MON trcstat_ptracer2t_sd         =   1.4313051862140282E-04
(PID.TID 0000.0001) %MON trcstat_ptracer2t_del2       =   0.0000000000000000E+00
(PID.TID 0000.0001) %MON trcstat_ptracer2u_max        =   1.4532045303577032E-02
(PID.TID 0000.0001) %MON trcstat_ptracer2u_min        =   4.5533093597943296E-06
(PID.TID 0000.0001) %MON trcstat_ptracer2u_mean       =   3.8809721778309793E-04
(PID.TID 0000.0001) %MON trcstat_ptracer2u_sd         =   1.9518335344793870E-03
(PID.TID 0000.0001) %MON trcstat_ptracer2u_del2       =   0.0000000000000000E+00
(PID.TID 0000.0001) %MON trcstat_ptracer2v_max        =   1.5483651873088694E-02
(PID.TID 0000.0001) %MON trcstat_ptracer2v_min        =   4.5607927418556662E-06
(PID.TID 0000.0001) %MON trcstat_ptracer2v_mean       =   4.4929631039561450E-04
(PID.TID 0000.0001) %MON trcstat_ptracer2v_sd         =   2.2289591767375720E-03
(PID.TID 0000.0001) %MON trcstat_ptracer2v_del2       =   0.0000000000000000E+00
(PID.TID 0000.0001) %MON trcstat_ptracer2w_max        =   1.0758162588385219E-03
(PID.TID 0000.0001) %MON trcstat_ptracer2w_min        =   4.5115264216787549E-07
(PID.TID 0000.0001) %MON trcstat_ptracer2w_mean       =   2.5775144165613220E-05
(PID.TID 0000.0001) %MON trcstat_ptracer2w_sd         =   1.3508630870191169E-04
(PID.TID 0000.0001) %MON trcstat_ptracer2w_del2       =   0.0000000000000000E+00
(PID.TID 0000.0001) %MON trcstat_ptracer2x_max        =   1.4206972625619409E-02
(PID.TID 0000.0001) %MON trcstat_ptracer2x_min        =   4.5529712152602235E-06
(PID.TID 0000.0001) %MON trcstat_ptracer2x_mean       =   3.7204254790780056E-04
(PID.TID 0000.0001) %MON trcstat_ptracer2x_sd         =   1.8795825493120094E-03
(PID.TID 0000.0001) %MON trcstat_ptracer2x_del2       =   0.0000000000000000E+00
(PID.TID 0000.0001) %MON trcstat_ptracer2y_max        =   1.5305134121433054E-02
(PID.TID 0000.0001) %MON trcstat_ptracer2y_min        =   4.5600261350663591E-06
(PID.TID 0000.0001) %MON trcstat_ptracer2y_mean       =   4.3564981867600733E-04
(PID.TID 0000.0001) %MON trcstat_ptracer2y_sd         =   2.1663721679592929E-03
(PID.TID 0000.0001) %MON trcstat_ptracer2y_del2       =   0.0000000000000000E+00
(PID.TID 0000.0001) %MON trcstat_ptracer2z_max        =   1.3836828243060331E-02
(PID.TID 0000.0001) %MON trcstat_ptracer2z_min        =   4.5529745119280600E-06
(PID.TID 0000.0001) %MON trcstat_ptracer2z_mean       =   3.5562478475599892E-04
(PID.TID 0000.0001) %MON trcstat_ptracer2z_sd         =   1.8054712891693084E-03
(PID.TID 0000.0001) %MON trcstat_ptracer2z_del2       =   0.0000000000000000E+00
(PID.TID 0000.0001) %MON trcstat_ptracer2A_max        =   1.5096870915961548E-02
(PID.TID 0000.0001) %MON trcstat_ptracer2A_min        =   4.5591095529257020E-06
(PID.TID 0000.0001) %MON trcstat_ptracer2A_mean       =   4.2130530116424520E-04
(PID.TID 0000.0001) %MON trcstat_ptracer2A_sd         =   2.1011239615426553E-03
(PID.TID 0000.0001) %MON trcstat_ptracer2A_del2       =   0.0000000000000000E+00
(PID.TID 0000.0001) %MON trcstat_ptracer2B_max        =   1.4854625641276681E-02
(PID.TID 0000.0001) %MON trcstat_ptracer2B_min        =   4.5580131866087122E-06
(PID.TID 0000.0001) %MON trcstat_ptracer2B_mean       =   4.0633204080773157E-04
(PID.TID 0000.0001) %MON trcstat_ptracer2B_sd         =   2.0333971579416738E-03
(PID.TID 0000.0001) %MON trcstat_ptracer2B_del2       =   0.0000000000000000E+00
(PID.TID 0000.0001) %MON trcstat_ptracer2C_max        =   1.4574121151551211E-02
(PID.TID 0000.0001) %MON trcstat_ptracer2C_min        =   4.5567011706095094E-06
(PID.TID 0000.0001) %MON trcstat_ptracer2C_mean       =   3.9081128902369226E-04
(PID.TID 0000.0001) %MON trcstat_ptracer2C_sd         =   1.9633865108640795E-03
(PID.TID 0000.0001) %MON trcstat_ptracer2C_del2       =   0.0000000000000000E+00
(PID.TID 0000.0001) %MON trcstat_ptracer2D_max        =   1.4250777581735747E-02
(PID.TID 0000.0001) %MON trcstat_ptracer2D_min        =   4.5551304411319834E-06
(PID.TID 0000.0001) %MON trcstat_ptracer2D_mean       =   3.7482657062168053E-04
(PID.TID 0000.0001) %MON trcstat_ptracer2D_sd         =   1.8912597921171375E-03
(PID.TID 0000.0001) %MON trcstat_ptracer2D_del2       =   0.0000000000000000E+00
(PID.TID 0000.0001) // =======================================================
(PID.TID 0000.0001) // End MONITOR ptracers field statistics
(PID.TID 0000.0001) // =======================================================
 Computing Diagnostic #    160  TRAC01       Counter:       1   Parms: SMR     MR      
 Computing Diagnostic #    174  TRAC02       Counter:       1   Parms: SMR     MR      
 Computing Diagnostic #    188  TRAC03       Counter:       1   Parms: SMR     MR      
 Computing Diagnostic #    202  TRAC04       Counter:       1   Parms: SMR     MR      
 Computing Diagnostic #    216  TRAC05       Counter:       1   Parms: SMR     MR      
 Computing Diagnostic #    230  TRAC06       Counter:       1   Parms: SMR     MR      
 Computing Diagnostic #    244  TRAC07       Counter:       1   Parms: SMR     MR      
 Computing Diagnostic #    258  TRAC08       Counter:       1   Parms: SMR     MR      
 Computing Diagnostic #    272  TRAC09       Counter:       1   Parms: SMR     MR      
 Computing Diagnostic #    286  TRAC10       Counter:       1   Parms: SMR     MR      
 Computing Diagnostic #    300  TRAC11       Counter:       1   Parms: SMR     MR      
 Computing Diagnostic #    314  TRAC12       Counter:       1   Parms: SMR     MR      
 Computing Diagnostic #    328  TRAC13       Counter:       1   Parms: SMR     MR      
 Computing Diagnostic #    342  TRAC14       Counter:       1   Parms: SMR     MR      
 Computing Diagnostic #    356  TRAC15       Counter:       1   Parms: SMR     MR      
 Computing Diagnostic #    370  TRAC16       Counter:       1   Parms: SMR     MR      
 Computing Diagnostic #    384  TRAC17       Counter:       1   Parms: SMR     MR      
 Computing Diagnostic #    398  TRAC18       Counter:       1   Parms: SMR     MR      
 Computing Diagnostic #    412  TRAC19       Counter:       1   Parms: SMR     MR      
 Computing Diagnostic #    426  TRAC20       Counter:       1   Parms: SMR     MR      
 Computing Diagnostic #    440  TRAC21       Counter:       1   Parms: SMR     MR      
 Computing Diagnostic #    454  TRAC22       Counter:       1   Parms: SMR     MR      
 Computing Diagnostic #    468  TRAC23       Counter:       1   Parms: SMR     MR      
 Computing Diagnostic #    482  TRAC24       Counter:       1   Parms: SMR     MR      
 Computing Diagnostic #    496  TRAC25       Counter:       1   Parms: SMR     MR      
 Computing Diagnostic #    510  TRAC26       Counter:       1   Parms: SMR     MR      
 Computing Diagnostic #    524  TRAC27       Counter:       1   Parms: SMR     MR      
 Computing Diagnostic #    538  TRAC28       Counter:       1   Parms: SMR     MR      
 Computing Diagnostic #    552  TRAC29       Counter:       1   Parms: SMR     MR      
 Computing Diagnostic #    566  TRAC30       Counter:       1   Parms: SMR     MR      
 Computing Diagnostic #    580  TRAC31       Counter:       1   Parms: SMR     MR      
 Computing Diagnostic #    594  TRAC32       Counter:       1   Parms: SMR     MR      
 Computing Diagnostic #    608  TRAC33       Counter:       1   Parms: SMR     MR      
 Computing Diagnostic #    622  TRAC34       Counter:       1   Parms: SMR     MR      
 Computing Diagnostic #    636  TRAC35       Counter:       1   Parms: SMR     MR      
 Computing Diagnostic #    650  TRAC36       Counter:       1   Parms: SMR     MR      
 Computing Diagnostic #    664  TRAC37       Counter:       1   Parms: SMR     MR      
 Computing Diagnostic #    678  TRAC38       Counter:       1   Parms: SMR     MR      
 Computing Diagnostic #    692  TRAC39       Counter:       1   Parms: SMR     MR      
 Computing Diagnostic #    706  TRAC40       Counter:       1   Parms: SMR     MR      
 Computing Diagnostic #    720  TRAC41       Counter:       1   Parms: SMR     MR      
 Computing Diagnostic #    734  TRAC42       Counter:       1   Parms: SMR     MR      
 Computing Diagnostic #    748  TRAC43       Counter:       1   Parms: SMR     MR      
 Computing Diagnostic #    762  TRAC44       Counter:       1   Parms: SMR     MR      
 Computing Diagnostic #    776  TRAC45       Counter:       1   Parms: SMR     MR      
 Computing Diagnostic #    790  TRAC46       Counter:       1   Parms: SMR     MR      
 Computing Diagnostic #    804  TRAC47       Counter:       1   Parms: SMR     MR      
 Computing Diagnostic #    818  TRAC48       Counter:       1   Parms: SMR     MR      
 Computing Diagnostic #    832  TRAC49       Counter:       1   Parms: SMR     MR      
 Computing Diagnostic #    846  TRAC50       Counter:       1   Parms: SMR     MR      
 Computing Diagnostic #    860  TRAC51       Counter:       1   Parms: SMR     MR      
 Computing Diagnostic #    874  TRAC52       Counter:       1   Parms: SMR     MR      
 Computing Diagnostic #    888  TRAC53       Counter:       1   Parms: SMR     MR      
 Computing Diagnostic #    902  TRAC54       Counter:       1   Parms: SMR     MR      
 Computing Diagnostic #    916  TRAC55       Counter:       1   Parms: SMR     MR      
 Computing Diagnostic #    930  TRAC56       Counter:       1   Parms: SMR     MR      
 Computing Diagnostic #    944  TRAC57       Counter:       1   Parms: SMR     MR      
 Computing Diagnostic #    958  TRAC58       Counter:       1   Parms: SMR     MR      
 Computing Diagnostic #    972  TRAC59       Counter:       1   Parms: SMR     MR      
 Computing Diagnostic #    986  TRAC60       Counter:       1   Parms: SMR     MR      
 Computing Diagnostic #   1000  TRAC61       Counter:       1   Parms: SMR     MR      
 Computing Diagnostic #   1014  TRAC62       Counter:       1   Parms: SMR     MR      
 Computing Diagnostic #   1028  TRAC63       Counter:       1   Parms: SMR     MR      
 Computing Diagnostic #   1042  TRAC64       Counter:       1   Parms: SMR     MR      
 Computing Diagnostic #   1056  TRAC65       Counter:       1   Parms: SMR     MR      
 Computing Diagnostic #   1070  TRAC66       Counter:       1   Parms: SMR     MR      
 Computing Diagnostic #   1084  TRAC67       Counter:       1   Parms: SMR     MR      
 Computing Diagnostic #   1098  TRAC68       Counter:       1   Parms: SMR     MR      
 Computing Diagnostic #   1112  TRAC69       Counter:       1   Parms: SMR     MR      
 Computing Diagnostic #   1126  TRAC70       Counter:       1   Parms: SMR     MR      
 Computing Diagnostic #   1140  TRAC71       Counter:       1   Parms: SMR     MR      
 Computing Diagnostic #   1154  TRAC72       Counter:       1   Parms: SMR     MR      
 Computing Diagnostic #   1168  TRAC73       Counter:       1   Parms: SMR     MR      
 Computing Diagnostic #   1182  TRAC74       Counter:       1   Parms: SMR     MR      
 Computing Diagnostic #   1196  TRAC75       Counter:       1   Parms: SMR     MR      
 Computing Diagnostic #   1210  TRAC76       Counter:       1   Parms: SMR     MR      
 Computing Diagnostic #   1224  TRAC77       Counter:       1   Parms: SMR     MR      
 Computing Diagnostic #   1238  TRAC78       Counter:       1   Parms: SMR     MR      
 Computing Diagnostic #   1252  TRAC79       Counter:       1   Parms: SMR     MR      
 Computing Diagnostic #   1266  TRAC80       Counter:       1   Parms: SMR     MR      
 Computing Diagnostic #   1280  TRAC81       Counter:       1   Parms: SMR     MR      
 Computing Diagnostic #   1294  TRAC82       Counter:       1   Parms: SMR     MR      
 Computing Diagnostic #   1308  TRAC83       Counter:       1   Parms: SMR     MR      
 Computing Diagnostic #   1322  TRAC84       Counter:       1   Parms: SMR     MR      
 Computing Diagnostic #   1336  TRAC85       Counter:       1   Parms: SMR     MR      
 Computing Diagnostic #   1350  TRAC86       Counter:       1   Parms: SMR     MR      
 Computing Diagnostic #   1364  TRAC87       Counter:       1   Parms: SMR     MR      
 Computing Diagnostic #   1378  TRAC88       Counter:       1   Parms: SMR     MR      
 Computing Diagnostic #   1392  TRAC89       Counter:       1   Parms: SMR     MR      
 Computing Diagnostic #   1406  TRAC90       Counter:       1   Parms: SMR     MR      
 Computing Diagnostic #   1420  TRAC91       Counter:       1   Parms: SMR     MR      
 Computing Diagnostic #   1434  TRAC92       Counter:       1   Parms: SMR     MR      
 Computing Diagnostic #   1448  TRAC93       Counter:       1   Parms: SMR     MR      
 Computing Diagnostic #   1462  TRAC94       Counter:       1   Parms: SMR     MR      
 Computing Diagnostic #   1476  TRAC95       Counter:       1   Parms: SMR     MR      
 Computing Diagnostic #   1490  TRAC96       Counter:       1   Parms: SMR     MR      
 Computing Diagnostic #   1504  TRAC97       Counter:       1   Parms: SMR     MR      
 Computing Diagnostic #   1518  TRAC98       Counter:       1   Parms: SMR     MR      
 Computing Diagnostic #   1532  TRAC99       Counter:       1   Parms: SMR     MR      
 Computing Diagnostic #   1546  TRAC0a       Counter:       1   Parms: SMR     MR      
 Computing Diagnostic #   1560  TRAC0b       Counter:       1   Parms: SMR     MR      
 Computing Diagnostic #   1574  TRAC0c       Counter:       1   Parms: SMR     MR      
 Computing Diagnostic #   1588  TRAC0d       Counter:       1   Parms: SMR     MR      
 Computing Diagnostic #   1602  TRAC0e       Counter:       1   Parms: SMR     MR      
 Computing Diagnostic #   1616  TRAC0f       Counter:       1   Parms: SMR     MR      
 Computing Diagnostic #   1630  TRAC0g       Counter:       1   Parms: SMR     MR      
 Computing Diagnostic #   1644  TRAC0h       Counter:       1   Parms: SMR     MR      
 Computing Diagnostic #   1658  TRAC0i       Counter:       1   Parms: SMR     MR      
 Computing Diagnostic #   1672  TRAC0j       Counter:       1   Parms: SMR     MR      
 Computing Diagnostic #   1686  TRAC0k       Counter:       1   Parms: SMR     MR      
 Computing Diagnostic #   1700  TRAC0l       Counter:       1   Parms: SMR     MR      
 Computing Diagnostic #   1714  TRAC0m       Counter:       1   Parms: SMR     MR      
 Computing Diagnostic #   1728  TRAC0n       Counter:       1   Parms: SMR     MR      
 Computing Diagnostic #    160  TRAC01       Counter:       1   Parms: SMR     MR      
 Computing Diagnostic #   1742  TRAC0o       Counter:       1   Parms: SMR     MR      
 Computing Diagnostic #   1770  TRAC0q       Counter:       1   Parms: SMR     MR      
 Computing Diagnostic #   1784  TRAC0r       Counter:       1   Parms: SMR     MR      
 Computing Diagnostic #   1798  TRAC0s       Counter:       1   Parms: SMR     MR      
 Computing Diagnostic #   1812  TRAC0t       Counter:       1   Parms: SMR     MR      
 Computing Diagnostic #   1826  TRAC0u       Counter:       1   Parms: SMR     MR      
 Computing Diagnostic #   1840  TRAC0v       Counter:       1   Parms: SMR     MR      
 Computing Diagnostic #   1854  TRAC0w       Counter:       1   Parms: SMR     MR      
 Computing Diagnostic #   1868  TRAC0x       Counter:       1   Parms: SMR     MR      
 Computing Diagnostic #   1882  TRAC0y       Counter:       1   Parms: SMR     MR      
 Computing Diagnostic #   1896  TRAC0z       Counter:       1   Parms: SMR     MR      
 Computing Diagnostic #   1910  TRAC0A       Counter:       1   Parms: SMR     MR      
 Computing Diagnostic #   1924  TRAC0B       Counter:       1   Parms: SMR     MR      
 Computing Diagnostic #   1938  TRAC0C       Counter:       1   Parms: SMR     MR      
 Computing Diagnostic #   1952  TRAC0D       Counter:       1   Parms: SMR     MR      
 Computing Diagnostic #   1966  TRAC0E       Counter:       1   Parms: SMR     MR      
 Computing Diagnostic #   1980  TRAC0F       Counter:       1   Parms: SMR     MR      
 Computing Diagnostic #   1994  TRAC0G       Counter:       1   Parms: SMR     MR      
 Computing Diagnostic #   2008  TRAC0H       Counter:       1   Parms: SMR     MR      
 Computing Diagnostic #   2022  TRAC0I       Counter:       1   Parms: SMR     MR      
 Computing Diagnostic #   2036  TRAC0J       Counter:       1   Parms: SMR     MR      
 Computing Diagnostic #   2050  TRAC0K       Counter:       1   Parms: SMR     MR      
 Computing Diagnostic #   2064  TRAC0L       Counter:       1   Parms: SMR     MR      
 Computing Diagnostic #   2078  TRAC0M       Counter:       1   Parms: SMR     MR      
 Computing Diagnostic #   2092  TRAC0N       Counter:       1   Parms: SMR     MR      
 Computing Diagnostic #    160  TRAC01       Counter:       1   Parms: SMR     MR      
 Computing Diagnostic #   2106  TRAC0O       Counter:       1   Parms: SMR     MR      
 Computing Diagnostic #   2134  TRAC0Q       Counter:       1   Parms: SMR     MR      
 Computing Diagnostic #   2148  TRAC0R       Counter:       1   Parms: SMR     MR      
 Computing Diagnostic #   2162  TRAC0S       Counter:       1   Parms: SMR     MR      
 Computing Diagnostic #   2176  TRAC0T       Counter:       1   Parms: SMR     MR      
 Computing Diagnostic #   2190  TRAC0U       Counter:       1   Parms: SMR     MR      
 Computing Diagnostic #   2204  TRAC0V       Counter:       1   Parms: SMR     MR      
 Computing Diagnostic #   2218  TRAC0W       Counter:       1   Parms: SMR     MR      
 Computing Diagnostic #   2232  TRAC0X       Counter:       1   Parms: SMR     MR      
 Computing Diagnostic #   2246  TRAC0Y       Counter:       1   Parms: SMR     MR      
 Computing Diagnostic #   2260  TRAC0Z       Counter:       1   Parms: SMR     MR      
 Computing Diagnostic #   2274  TRAC1a       Counter:       1   Parms: SMR     MR      
 Computing Diagnostic #   2288  TRAC1b       Counter:       1   Parms: SMR     MR      
 Computing Diagnostic #   2302  TRAC1c       Counter:       1   Parms: SMR     MR      
 Computing Diagnostic #   2316  TRAC1d       Counter:       1   Parms: SMR     MR      
 Computing Diagnostic #   2330  TRAC1e       Counter:       1   Parms: SMR     MR      
 Computing Diagnostic #   2344  TRAC1f       Counter:       1   Parms: SMR     MR      
 Computing Diagnostic #   2358  TRAC1g       Counter:       1   Parms: SMR     MR      
 Computing Diagnostic #   2372  TRAC1h       Counter:       1   Parms: SMR     MR      
 Computing Diagnostic #   2386  TRAC1i       Counter:       1   Parms: SMR     MR      
 Computing Diagnostic #   2400  TRAC1j       Counter:       1   Parms: SMR     MR      
 Computing Diagnostic #   2414  TRAC1k       Counter:       1   Parms: SMR     MR      
 Computing Diagnostic #   2428  TRAC1l       Counter:       1   Parms: SMR     MR      
 Computing Diagnostic #   2442  TRAC1m       Counter:       1   Parms: SMR     MR      
 Computing Diagnostic #   2456  TRAC1n       Counter:       1   Parms: SMR     MR      
 Computing Diagnostic #    300  TRAC11       Counter:       1   Parms: SMR     MR      
 Computing Diagnostic #   2470  TRAC1o       Counter:       1   Parms: SMR     MR      
 Computing Diagnostic #   2498  TRAC1q       Counter:       1   Parms: SMR     MR      
 Computing Diagnostic #   2512  TRAC1r       Counter:       1   Parms: SMR     MR      
 Computing Diagnostic #   2526  TRAC1s       Counter:       1   Parms: SMR     MR      
 Computing Diagnostic #   2540  TRAC1t       Counter:       1   Parms: SMR     MR      
 Computing Diagnostic #   2554  TRAC1u       Counter:       1   Parms: SMR     MR      
 Computing Diagnostic #   2568  TRAC1v       Counter:       1   Parms: SMR     MR      
 Computing Diagnostic #   2582  TRAC1w       Counter:       1   Parms: SMR     MR      
 Computing Diagnostic #   2596  TRAC1x       Counter:       1   Parms: SMR     MR      
 Computing Diagnostic #   2610  TRAC1y       Counter:       1   Parms: SMR     MR      
 Computing Diagnostic #   2624  TRAC1z       Counter:       1   Parms: SMR     MR      
 Computing Diagnostic #   2638  TRAC1A       Counter:       1   Parms: SMR     MR      
 Computing Diagnostic #   2652  TRAC1B       Counter:       1   Parms: SMR     MR      
 Computing Diagnostic #   2666  TRAC1C       Counter:       1   Parms: SMR     MR      
 Computing Diagnostic #   2680  TRAC1D       Counter:       1   Parms: SMR     MR      
 Computing Diagnostic #   2694  TRAC1E       Counter:       1   Parms: SMR     MR      
 Computing Diagnostic #   2708  TRAC1F       Counter:       1   Parms: SMR     MR      
 Computing Diagnostic #   2722  TRAC1G       Counter:       1   Parms: SMR     MR      
 Computing Diagnostic #   2736  TRAC1H       Counter:       1   Parms: SMR     MR      
 Computing Diagnostic #   2750  TRAC1I       Counter:       1   Parms: SMR     MR      
 Computing Diagnostic #   2764  TRAC1J       Counter:       1   Parms: SMR     MR      
 Computing Diagnostic #   2778  TRAC1K       Counter:       1   Parms: SMR     MR      
 Computing Diagnostic #   2792  TRAC1L       Counter:       1   Parms: SMR     MR      
 Computing Diagnostic #   2806  TRAC1M       Counter:       1   Parms: SMR     MR      
 Computing Diagnostic #   2820  TRAC1N       Counter:       1   Parms: SMR     MR      
 Computing Diagnostic #    300  TRAC11       Counter:       1   Parms: SMR     MR      
 Computing Diagnostic #   2834  TRAC1O       Counter:       1   Parms: SMR     MR      
 Computing Diagnostic #   2862  TRAC1Q       Counter:       1   Parms: SMR     MR      
 Computing Diagnostic #   2876  TRAC1R       Counter:       1   Parms: SMR     MR      
 Computing Diagnostic #   2890  TRAC1S       Counter:       1   Parms: SMR     MR      
 Computing Diagnostic #   2904  TRAC1T       Counter:       1   Parms: SMR     MR      
 Computing Diagnostic #   2918  TRAC1U       Counter:       1   Parms: SMR     MR      
 Computing Diagnostic #   2932  TRAC1V       Counter:       1   Parms: SMR     MR      
 Computing Diagnostic #   2946  TRAC1W       Counter:       1   Parms: SMR     MR      
 Computing Diagnostic #   2960  TRAC1X       Counter:       1   Parms: SMR     MR      
 Computing Diagnostic #   2974  TRAC1Y       Counter:       1   Parms: SMR     MR      
 Computing Diagnostic #   2988  TRAC1Z       Counter:       1   Parms: SMR     MR      
 Computing Diagnostic #   3002  TRAC2a       Counter:       1   Parms: SMR     MR      
 Computing Diagnostic #   3016  TRAC2b       Counter:       1   Parms: SMR     MR      
 Computing Diagnostic #   3030  TRAC2c       Counter:       1   Parms: SMR     MR      
 Computing Diagnostic #   3044  TRAC2d       Counter:       1   Parms: SMR     MR      
 Computing Diagnostic #   3058  TRAC2e       Counter:       1   Parms: SMR     MR      
 Computing Diagnostic #   3072  TRAC2f       Counter:       1   Parms: SMR     MR      
 Computing Diagnostic #   3086  TRAC2g       Counter:       1   Parms: SMR     MR      
 Computing Diagnostic #   3100  TRAC2h       Counter:       1   Parms: SMR     MR      
 Computing Diagnostic #   3114  TRAC2i       Counter:       1   Parms: SMR     MR      
 Computing Diagnostic #   3128  TRAC2j       Counter:       1   Parms: SMR     MR      
 Computing Diagnostic #   3142  TRAC2k       Counter:       1   Parms: SMR     MR      
 Computing Diagnostic #   3156  TRAC2l       Counter:       1   Parms: SMR     MR      
 Computing Diagnostic #   3170  TRAC2m       Counter:       1   Parms: SMR     MR      
 Computing Diagnostic #   3184  TRAC2n       Counter:       1   Parms: SMR     MR      
 Computing Diagnostic #    440  TRAC21       Counter:       1   Parms: SMR     MR      
 Computing Diagnostic #   3198  TRAC2o       Counter:       1   Parms: SMR     MR      
 Computing Diagnostic #   3226  TRAC2q       Counter:       1   Parms: SMR     MR      
 Computing Diagnostic #   3240  TRAC2r       Counter:       1   Parms: SMR     MR      
 Computing Diagnostic #   3254  TRAC2s       Counter:       1   Parms: SMR     MR      
 Computing Diagnostic #   3268  TRAC2t       Counter:       1   Parms: SMR     MR      
 Computing Diagnostic #   3282  TRAC2u       Counter:       1   Parms: SMR     MR      
 Computing Diagnostic #   3296  TRAC2v       Counter:       1   Parms: SMR     MR      
 Computing Diagnostic #   3310  TRAC2w       Counter:       1   Parms: SMR     MR      
 Computing Diagnostic #   3324  TRAC2x       Counter:       1   Parms: SMR     MR      
 Computing Diagnostic #   3338  TRAC2y       Counter:       1   Parms: SMR     MR      
 Computing Diagnostic #   3352  TRAC2z       Counter:       1   Parms: SMR     MR      
 Computing Diagnostic #   3366  TRAC2A       Counter:       1   Parms: SMR     MR      
 Computing Diagnostic #   3380  TRAC2B       Counter:       1   Parms: SMR     MR      
 Computing Diagnostic #   3394  TRAC2C       Counter:       1   Parms: SMR     MR      
 Computing Diagnostic #   3408  TRAC2D       Counter:       1   Parms: SMR     MR      
 Computing Diagnostic #   3430  PAR01        Counter:       1   Parms: SM P    MR      
 Computing Diagnostic #   3423  PP           Counter:       1   Parms: SM P    MR      
 Computing Diagnostic #   3424  Nfix         Counter:       1   Parms: SM P    MR      
 Computing Diagnostic #   3425  Denit        Counter:       1   Parms: SM P    MR      
 Compute Stats, Diag. #   3423  PP        vol(   0 ): 3.081E+13  Parms: SM P    MR      
 Compute Stats, Diag. #   3424  Nfix      vol(   0 ): 3.081E+13  Parms: SM P    MR      
 Compute Stats, Diag. #   3425  Denit     vol(   0 ): 3.081E+13  Parms: SM P    MR      
(PID.TID 0000.0001) // =======================================================
(PID.TID 0000.0001) // Begin MONITOR EXF statistics
(PID.TID 0000.0001) // =======================================================
(PID.TID 0000.0001) %MON exf_tsnumber                 =                     2
(PID.TID 0000.0001) %MON exf_time_sec                 =   7.2000000000000000E+03
(PID.TID 0000.0001) %MON exf_ustress_max              =   0.0000000000000000E+00
(PID.TID 0000.0001) %MON exf_ustress_min              =   0.0000000000000000E+00
(PID.TID 0000.0001) %MON exf_ustress_mean             =   0.0000000000000000E+00
(PID.TID 0000.0001) %MON exf_ustress_sd               =   0.0000000000000000E+00
(PID.TID 0000.0001) %MON exf_ustress_del2             =   0.0000000000000000E+00
(PID.TID 0000.0001) %MON exf_vstress_max              =   0.0000000000000000E+00
(PID.TID 0000.0001) %MON exf_vstress_min              =   0.0000000000000000E+00
(PID.TID 0000.0001) %MON exf_vstress_mean             =   0.0000000000000000E+00
(PID.TID 0000.0001) %MON exf_vstress_sd               =   0.0000000000000000E+00
(PID.TID 0000.0001) %MON exf_vstress_del2             =   0.0000000000000000E+00
(PID.TID 0000.0001) %MON exf_hflux_max                =   0.0000000000000000E+00
(PID.TID 0000.0001) %MON exf_hflux_min                =   0.0000000000000000E+00
(PID.TID 0000.0001) %MON exf_hflux_mean               =   0.0000000000000000E+00
(PID.TID 0000.0001) %MON exf_hflux_sd                 =   0.0000000000000000E+00
(PID.TID 0000.0001) %MON exf_hflux_del2               =   0.0000000000000000E+00
(PID.TID 0000.0001) %MON exf_sflux_max                =   0.0000000000000000E+00
(PID.TID 0000.0001) %MON exf_sflux_min                =   0.0000000000000000E+00
(PID.TID 0000.0001) %MON exf_sflux_mean               =   0.0000000000000000E+00
(PID.TID 0000.0001) %MON exf_sflux_sd                 =   0.0000000000000000E+00
(PID.TID 0000.0001) %MON exf_sflux_del2               =   0.0000000000000000E+00
(PID.TID 0000.0001) %MON exf_uwind_max                =   0.0000000000000000E+00
(PID.TID 0000.0001) %MON exf_uwind_min                =   0.0000000000000000E+00
(PID.TID 0000.0001) %MON exf_uwind_mean               =   0.0000000000000000E+00
(PID.TID 0000.0001) %MON exf_uwind_sd                 =   0.0000000000000000E+00
(PID.TID 0000.0001) %MON exf_uwind_del2               =   0.0000000000000000E+00
(PID.TID 0000.0001) %MON exf_vwind_max                =   0.0000000000000000E+00
(PID.TID 0000.0001) %MON exf_vwind_min                =   0.0000000000000000E+00
(PID.TID 0000.0001) %MON exf_vwind_mean               =   0.0000000000000000E+00
(PID.TID 0000.0001) %MON exf_vwind_sd                 =   0.0000000000000000E+00
(PID.TID 0000.0001) %MON exf_vwind_del2               =   0.0000000000000000E+00
(PID.TID 0000.0001) %MON exf_wspeed_max               =   0.0000000000000000E+00
(PID.TID 0000.0001) %MON exf_wspeed_min               =   0.0000000000000000E+00
(PID.TID 0000.0001) %MON exf_wspeed_mean              =   0.0000000000000000E+00
(PID.TID 0000.0001) %MON exf_wspeed_sd                =   0.0000000000000000E+00
(PID.TID 0000.0001) %MON exf_wspeed_del2              =   0.0000000000000000E+00
(PID.TID 0000.0001) %MON exf_evap_max                 =   0.0000000000000000E+00
(PID.TID 0000.0001) %MON exf_evap_min                 =   0.0000000000000000E+00
(PID.TID 0000.0001) %MON exf_evap_mean                =   0.0000000000000000E+00
(PID.TID 0000.0001) %MON exf_evap_sd                  =   0.0000000000000000E+00
(PID.TID 0000.0001) %MON exf_evap_del2                =   0.0000000000000000E+00
(PID.TID 0000.0001) // =======================================================
(PID.TID 0000.0001) // End MONITOR EXF statistics
(PID.TID 0000.0001) // =======================================================
 EXTERNAL_FIELDS_LOAD,         2 : iP,iLd,i0,i1=   12    1   12    1 ; Wght=  0.4972222222  0.5027777778
(PID.TID 0000.0001) // =======================================================
(PID.TID 0000.0001) // Begin MONITOR dynamic field statistics
(PID.TID 0000.0001) // =======================================================
(PID.TID 0000.0001) %MON time_tsnumber                =                     3
(PID.TID 0000.0001) %MON time_secondsf                =   1.0800000000000000E+04
(PID.TID 0000.0001) %MON dynstat_eta_max              =   0.0000000000000000E+00
(PID.TID 0000.0001) %MON dynstat_eta_min              =   0.0000000000000000E+00
(PID.TID 0000.0001) %MON dynstat_eta_mean             =   0.0000000000000000E+00
(PID.TID 0000.0001) %MON dynstat_eta_sd               =   0.0000000000000000E+00
(PID.TID 0000.0001) %MON dynstat_eta_del2             =   0.0000000000000000E+00
(PID.TID 0000.0001) %MON dynstat_uvel_max             =   0.0000000000000000E+00
(PID.TID 0000.0001) %MON dynstat_uvel_min             =   0.0000000000000000E+00
(PID.TID 0000.0001) %MON dynstat_uvel_mean            =   0.0000000000000000E+00
(PID.TID 0000.0001) %MON dynstat_uvel_sd              =   0.0000000000000000E+00
(PID.TID 0000.0001) %MON dynstat_uvel_del2            =   0.0000000000000000E+00
(PID.TID 0000.0001) %MON dynstat_vvel_max             =   0.0000000000000000E+00
(PID.TID 0000.0001) %MON dynstat_vvel_min             =   0.0000000000000000E+00
(PID.TID 0000.0001) %MON dynstat_vvel_mean            =   0.0000000000000000E+00
(PID.TID 0000.0001) %MON dynstat_vvel_sd              =   0.0000000000000000E+00
(PID.TID 0000.0001) %MON dynstat_vvel_del2            =   0.0000000000000000E+00
(PID.TID 0000.0001) %MON dynstat_wvel_max             =   0.0000000000000000E+00
(PID.TID 0000.0001) %MON dynstat_wvel_min             =   0.0000000000000000E+00
(PID.TID 0000.0001) %MON dynstat_wvel_mean            =   0.0000000000000000E+00
(PID.TID 0000.0001) %MON dynstat_wvel_sd              =   0.0000000000000000E+00
(PID.TID 0000.0001) %MON dynstat_wvel_del2            =   0.0000000000000000E+00
(PID.TID 0000.0001) %MON dynstat_theta_max            =   8.2616915570573877E+00
(PID.TID 0000.0001) %MON dynstat_theta_min            =   1.5167018429027368E+00
(PID.TID 0000.0001) %MON dynstat_theta_mean           =   2.8238551634290574E+00
(PID.TID 0000.0001) %MON dynstat_theta_sd             =   1.3641186209026439E+00
(PID.TID 0000.0001) %MON dynstat_theta_del2           =   0.0000000000000000E+00
(PID.TID 0000.0001) %MON dynstat_salt_max             =   3.5000000000000000E+01
(PID.TID 0000.0001) %MON dynstat_salt_min             =   3.5000000000000000E+01
(PID.TID 0000.0001) %MON dynstat_salt_mean            =   3.4999999999999986E+01
(PID.TID 0000.0001) %MON dynstat_salt_sd              =   1.4210854715202004E-14
(PID.TID 0000.0001) %MON dynstat_salt_del2            =   0.0000000000000000E+00
(PID.TID 0000.0001) %MON dynstat_sst_max              =   8.2616915570573877E+00
(PID.TID 0000.0001) %MON dynstat_sst_min              =   8.2616915570573877E+00
(PID.TID 0000.0001) %MON dynstat_sst_mean             =   8.2616915570573877E+00
(PID.TID 0000.0001) %MON dynstat_sst_sd               =   0.0000000000000000E+00
(PID.TID 0000.0001) %MON dynstat_sst_del2             =   0.0000000000000000E+00
(PID.TID 0000.0001) %MON dynstat_sss_max              =   3.5000000000000000E+01
(PID.TID 0000.0001) %MON dynstat_sss_min              =   3.5000000000000000E+01
(PID.TID 0000.0001) %MON dynstat_sss_mean             =   3.5000000000000000E+01
(PID.TID 0000.0001) %MON dynstat_sss_sd               =   0.0000000000000000E+00
(PID.TID 0000.0001) %MON dynstat_sss_del2             =   0.0000000000000000E+00
(PID.TID 0000.0001) %MON forcing_qnet_max             =   0.0000000000000000E+00
(PID.TID 0000.0001) %MON forcing_qnet_min             =   0.0000000000000000E+00
(PID.TID 0000.0001) %MON forcing_qnet_mean            =   0.0000000000000000E+00
(PID.TID 0000.0001) %MON forcing_qnet_sd              =   0.0000000000000000E+00
(PID.TID 0000.0001) %MON forcing_qnet_del2            =   0.0000000000000000E+00
(PID.TID 0000.0001) %MON forcing_qsw_max              =   0.0000000000000000E+00
(PID.TID 0000.0001) %MON forcing_qsw_min              =   0.0000000000000000E+00
(PID.TID 0000.0001) %MON forcing_qsw_mean             =   0.0000000000000000E+00
(PID.TID 0000.0001) %MON forcing_qsw_sd               =   0.0000000000000000E+00
(PID.TID 0000.0001) %MON forcing_qsw_del2             =   0.0000000000000000E+00
(PID.TID 0000.0001) %MON forcing_empmr_max            =   0.0000000000000000E+00
(PID.TID 0000.0001) %MON forcing_empmr_min            =   0.0000000000000000E+00
(PID.TID 0000.0001) %MON forcing_empmr_mean           =   0.0000000000000000E+00
(PID.TID 0000.0001) %MON forcing_empmr_sd             =   0.0000000000000000E+00
(PID.TID 0000.0001) %MON forcing_empmr_del2           =   0.0000000000000000E+00
(PID.TID 0000.0001) %MON forcing_fu_max               =   2.2648139112525518E+00
(PID.TID 0000.0001) %MON forcing_fu_min               =   2.2648139112525518E+00
(PID.TID 0000.0001) %MON forcing_fu_mean              =   2.2648139112525518E+00
(PID.TID 0000.0001) %MON forcing_fu_sd                =   0.0000000000000000E+00
(PID.TID 0000.0001) %MON forcing_fu_del2              =   0.0000000000000000E+00
(PID.TID 0000.0001) %MON forcing_fv_max               =  -4.1325000251332922E-01
(PID.TID 0000.0001) %MON forcing_fv_min               =  -4.1325000251332922E-01
(PID.TID 0000.0001) %MON forcing_fv_mean              =  -4.1325000251332922E-01
(PID.TID 0000.0001) %MON forcing_fv_sd                =   0.0000000000000000E+00
(PID.TID 0000.0001) %MON forcing_fv_del2              =   0.0000000000000000E+00
(PID.TID 0000.0001) %MON advcfl_uvel_max              =   0.0000000000000000E+00
(PID.TID 0000.0001) %MON advcfl_vvel_max              =   0.0000000000000000E+00
(PID.TID 0000.0001) %MON advcfl_wvel_max              =   0.0000000000000000E+00
(PID.TID 0000.0001) %MON advcfl_W_hf_max              =   0.0000000000000000E+00
(PID.TID 0000.0001) %MON pe_b_mean                    =   0.0000000000000000E+00
(PID.TID 0000.0001) %MON ke_max                       =   0.0000000000000000E+00
(PID.TID 0000.0001) %MON ke_mean                      =   0.0000000000000000E+00
(PID.TID 0000.0001) %MON ke_vol                       =   3.0811817830111180E+13
(PID.TID 0000.0001) %MON vort_r_min                   =   0.0000000000000000E+00
(PID.TID 0000.0001) %MON vort_r_max                   =   0.0000000000000000E+00
(PID.TID 0000.0001) %MON vort_a_mean                  =  -1.0312619976227577E-04
(PID.TID 0000.0001) %MON vort_a_sd                    =   2.8760747774580336E-12
(PID.TID 0000.0001) %MON vort_p_mean                  =  -1.0312619976227577E-04
(PID.TID 0000.0001) %MON vort_p_sd                    =   2.8760747774580336E-12
(PID.TID 0000.0001) %MON surfExpan_theta_mean         =   0.0000000000000000E+00
(PID.TID 0000.0001) %MON surfExpan_salt_mean          =   0.0000000000000000E+00
(PID.TID 0000.0001) // =======================================================
(PID.TID 0000.0001) // End MONITOR dynamic field statistics
(PID.TID 0000.0001) // =======================================================
(PID.TID 0000.0001) // =======================================================
(PID.TID 0000.0001) // Begin MONITOR ptracer field statistics
(PID.TID 0000.0001) // =======================================================
(PID.TID 0000.0001) %MON trcstat_ptracer01_max        =   2.2359129179172751E+03
(PID.TID 0000.0001) %MON trcstat_ptracer01_min        =   2.0735132008317573E+03
(PID.TID 0000.0001) %MON trcstat_ptracer01_mean       =   2.2089822666108957E+03
(PID.TID 0000.0001) %MON trcstat_ptracer01_sd         =   4.0008245375394715E+01
(PID.TID 0000.0001) %MON trcstat_ptracer01_del2       =   0.0000000000000000E+00
(PID.TID 0000.0001) %MON trcstat_ptracer02_max        =   3.5178066679772330E-01
(PID.TID 0000.0001) %MON trcstat_ptracer02_min        =   2.5325244734173071E-05
(PID.TID 0000.0001) %MON trcstat_ptracer02_mean       =   6.0494232257747868E-03
(PID.TID 0000.0001) %MON trcstat_ptracer02_sd         =   4.1806258628122206E-02
(PID.TID 0000.0001) %MON trcstat_ptracer02_del2       =   0.0000000000000000E+00
(PID.TID 0000.0001) %MON trcstat_ptracer03_max        =   2.4912897135538736E-01
(PID.TID 0000.0001) %MON trcstat_ptracer03_min        =   6.6159625746594220E-04
(PID.TID 0000.0001) %MON trcstat_ptracer03_mean       =   1.7294802764522724E-02
(PID.TID 0000.0001) %MON trcstat_ptracer03_sd         =   3.6563916010494892E-02
(PID.TID 0000.0001) %MON trcstat_ptracer03_del2       =   0.0000000000000000E+00
(PID.TID 0000.0001) %MON trcstat_ptracer04_max        =   3.4238349790245287E+01
(PID.TID 0000.0001) %MON trcstat_ptracer04_min        =   1.4607296556876477E+01
(PID.TID 0000.0001) %MON trcstat_ptracer04_mean       =   2.9891770203689866E+01
(PID.TID 0000.0001) %MON trcstat_ptracer04_sd         =   3.8831458236120953E+00
(PID.TID 0000.0001) %MON trcstat_ptracer04_del2       =   0.0000000000000000E+00
(PID.TID 0000.0001) %MON trcstat_ptracer05_max        =   2.3348112647975676E+00
(PID.TID 0000.0001) %MON trcstat_ptracer05_min        =   1.1985960277541667E+00
(PID.TID 0000.0001) %MON trcstat_ptracer05_mean       =   2.0209385839860596E+00
(PID.TID 0000.0001) %MON trcstat_ptracer05_sd         =   2.4247117477719965E-01
(PID.TID 0000.0001) %MON trcstat_ptracer05_del2       =   0.0000000000000000E+00
(PID.TID 0000.0001) %MON trcstat_ptracer06_max        =   9.3254130980533802E+01
(PID.TID 0000.0001) %MON trcstat_ptracer06_min        =   3.4196979182035725E+00
(PID.TID 0000.0001) %MON trcstat_ptracer06_mean       =   6.1182611594764296E+01
(PID.TID 0000.0001) %MON trcstat_ptracer06_sd         =   2.6240923809664604E+01
(PID.TID 0000.0001) %MON trcstat_ptracer06_del2       =   0.0000000000000000E+00
(PID.TID 0000.0001) %MON trcstat_ptracer07_max        =   9.2539154042250754E-04
(PID.TID 0000.0001) %MON trcstat_ptracer07_min        =   2.7491647143371805E-06
(PID.TID 0000.0001) %MON trcstat_ptracer07_mean       =   6.3721841789768949E-04
(PID.TID 0000.0001) %MON trcstat_ptracer07_sd         =   1.9802653708657188E-04
(PID.TID 0000.0001) %MON trcstat_ptracer07_del2       =   0.0000000000000000E+00
(PID.TID 0000.0001) %MON trcstat_ptracer08_max        =   1.2559524090120716E+01
(PID.TID 0000.0001) %MON trcstat_ptracer08_min        =   1.2113766097899596E-06
(PID.TID 0000.0001) %MON trcstat_ptracer08_mean       =   5.3390822026272078E-01
(PID.TID 0000.0001) %MON trcstat_ptracer08_sd         =   1.9388429453399432E+00
(PID.TID 0000.0001) %MON trcstat_ptracer08_del2       =   0.0000000000000000E+00
(PID.TID 0000.0001) %MON trcstat_ptracer09_max        =   1.6746997219182069E+00
(PID.TID 0000.0001) %MON trcstat_ptracer09_min        =   1.7168545501937890E-07
(PID.TID 0000.0001) %MON trcstat_ptracer09_mean       =   7.1193390672590215E-02
(PID.TID 0000.0001) %MON trcstat_ptracer09_sd         =   2.5853150490083132E-01
(PID.TID 0000.0001) %MON trcstat_ptracer09_del2       =   0.0000000000000000E+00
(PID.TID 0000.0001) %MON trcstat_ptracer10_max        =   1.0466376833592772E-01
(PID.TID 0000.0001) %MON trcstat_ptracer10_min        =   1.0391659139378145E-08
(PID.TID 0000.0001) %MON trcstat_ptracer10_mean       =   4.4492747380329026E-03
(PID.TID 0000.0001) %MON trcstat_ptracer10_sd         =   1.6157192732737843E-02
(PID.TID 0000.0001) %MON trcstat_ptracer10_del2       =   0.0000000000000000E+00
(PID.TID 0000.0001) %MON trcstat_ptracer11_max        =   1.0467236323241111E-04
(PID.TID 0000.0001) %MON trcstat_ptracer11_min        =   1.0990730495686950E-11
(PID.TID 0000.0001) %MON trcstat_ptracer11_mean       =   4.4498265000064715E-06
(PID.TID 0000.0001) %MON trcstat_ptracer11_sd         =   1.6158944857647360E-05
(PID.TID 0000.0001) %MON trcstat_ptracer11_del2       =   0.0000000000000000E+00
(PID.TID 0000.0001) %MON trcstat_ptracer12_max        =   1.2586273302456352E+00
(PID.TID 0000.0001) %MON trcstat_ptracer12_min        =   4.6452875759780431E-02
(PID.TID 0000.0001) %MON trcstat_ptracer12_mean       =   4.6830914392230621E-01
(PID.TID 0000.0001) %MON trcstat_ptracer12_sd         =   4.4344049157210691E-01
(PID.TID 0000.0001) %MON trcstat_ptracer12_del2       =   0.0000000000000000E+00
(PID.TID 0000.0001) %MON trcstat_ptracer13_max        =   1.6781716262362126E-01
(PID.TID 0000.0001) %MON trcstat_ptracer13_min        =   6.1957512230723100E-03
(PID.TID 0000.0001) %MON trcstat_ptracer13_mean       =   6.2444184978012726E-02
(PID.TID 0000.0001) %MON trcstat_ptracer13_sd         =   5.9124989862482075E-02
(PID.TID 0000.0001) %MON trcstat_ptracer13_del2       =   0.0000000000000000E+00
(PID.TID 0000.0001) %MON trcstat_ptracer14_max        =   1.0488561275960063E-02
(PID.TID 0000.0001) %MON trcstat_ptracer14_min        =   3.8710737559248114E-04
(PID.TID 0000.0001) %MON trcstat_ptracer14_mean       =   3.9025830598951919E-03
(PID.TID 0000.0001) %MON trcstat_ptracer14_sd         =   3.6953473537922827E-03
(PID.TID 0000.0001) %MON trcstat_ptracer14_del2       =   0.0000000000000000E+00
(PID.TID 0000.0001) %MON trcstat_ptracer15_max        =   5.9323194762141185E-01
(PID.TID 0000.0001) %MON trcstat_ptracer15_min        =   7.8440798848048429E-02
(PID.TID 0000.0001) %MON trcstat_ptracer15_mean       =   3.0105588850283571E-01
(PID.TID 0000.0001) %MON trcstat_ptracer15_sd         =   1.6085490399709190E-01
(PID.TID 0000.0001) %MON trcstat_ptracer15_del2       =   0.0000000000000000E+00
(PID.TID 0000.0001) %MON trcstat_ptracer16_max        =   1.0488585211184991E-05
(PID.TID 0000.0001) %MON trcstat_ptracer16_min        =   3.8736365789032202E-07
(PID.TID 0000.0001) %MON trcstat_ptracer16_mean       =   3.9029400295494082E-06
(PID.TID 0000.0001) %MON trcstat_ptracer16_sd         =   3.6952701759824459E-06
(PID.TID 0000.0001) %MON trcstat_ptracer16_del2       =   0.0000000000000000E+00
(PID.TID 0000.0001) %MON trcstat_ptracer17_max        =   8.2609056255182778E-02
(PID.TID 0000.0001) %MON trcstat_ptracer17_min        =   6.3871742305859867E-03
(PID.TID 0000.0001) %MON trcstat_ptracer17_mean       =   5.5174772217610503E-02
(PID.TID 0000.0001) %MON trcstat_ptracer17_sd         =   1.7349645825288484E-02
(PID.TID 0000.0001) %MON trcstat_ptracer17_del2       =   0.0000000000000000E+00
(PID.TID 0000.0001) %MON trcstat_ptracer18_max        =   2.3510738108626647E+03
(PID.TID 0000.0001) %MON trcstat_ptracer18_min        =   2.2764647935497078E+03
(PID.TID 0000.0001) %MON trcstat_ptracer18_mean       =   2.3233201810159812E+03
(PID.TID 0000.0001) %MON trcstat_ptracer18_sd         =   2.5000267267354189E+01
(PID.TID 0000.0001) %MON trcstat_ptracer18_del2       =   0.0000000000000000E+00
(PID.TID 0000.0001) %MON trcstat_ptracer19_max        =   2.3867907247927846E+01
(PID.TID 0000.0001) %MON trcstat_ptracer19_min        =   4.3194024061662466E+00
(PID.TID 0000.0001) %MON trcstat_ptracer19_mean       =   5.0561707801332938E+00
(PID.TID 0000.0001) %MON trcstat_ptracer19_sd         =   1.2535990162957442E+00
(PID.TID 0000.0001) %MON trcstat_ptracer19_del2       =   0.0000000000000000E+00
(PID.TID 0000.0001) %MON trcstat_ptracer20_max        =   5.4758688831855883E-02
(PID.TID 0000.0001) %MON trcstat_ptracer20_min        =   1.5179581167999235E-05
(PID.TID 0000.0001) %MON trcstat_ptracer20_mean       =   1.9028086219390378E-03
(PID.TID 0000.0001) %MON trcstat_ptracer20_sd         =   9.4575467489313066E-03
(PID.TID 0000.0001) %MON trcstat_ptracer20_del2       =   0.0000000000000000E+00
(PID.TID 0000.0001) %MON trcstat_ptracer21_max        =   5.4759178430358907E-02
(PID.TID 0000.0001) %MON trcstat_ptracer21_min        =   1.5179581373509096E-05
(PID.TID 0000.0001) %MON trcstat_ptracer21_mean       =   1.9028232403956078E-03
(PID.TID 0000.0001) %MON trcstat_ptracer21_sd         =   9.4575421397996400E-03
(PID.TID 0000.0001) %MON trcstat_ptracer21_del2       =   0.0000000000000000E+00
(PID.TID 0000.0001) %MON trcstat_ptracer22_max        =   5.4759583626445514E-02
(PID.TID 0000.0001) %MON trcstat_ptracer22_min        =   1.5179581724183208E-05
(PID.TID 0000.0001) %MON trcstat_ptracer22_mean       =   1.9028353447578599E-03
(PID.TID 0000.0001) %MON trcstat_ptracer22_sd         =   9.4574906595391514E-03
(PID.TID 0000.0001) %MON trcstat_ptracer22_del2       =   0.0000000000000000E+00
(PID.TID 0000.0001) %MON trcstat_ptracer23_max        =   5.4759918916920079E-02
(PID.TID 0000.0001) %MON trcstat_ptracer23_min        =   1.5179582348772225E-05
(PID.TID 0000.0001) %MON trcstat_ptracer23_mean       =   1.9028453692045665E-03
(PID.TID 0000.0001) %MON trcstat_ptracer23_sd         =   9.4573814526110050E-03
(PID.TID 0000.0001) %MON trcstat_ptracer23_del2       =   0.0000000000000000E+00
(PID.TID 0000.0001) %MON trcstat_ptracer24_max        =   5.4760068074739239E-03
(PID.TID 0000.0001) %MON trcstat_ptracer24_min        =   1.5179583513155282E-06
(PID.TID 0000.0001) %MON trcstat_ptracer24_mean       =   1.9028498437541227E-04
(PID.TID 0000.0001) %MON trcstat_ptracer24_sd         =   9.4571773106132226E-04
(PID.TID 0000.0001) %MON trcstat_ptracer24_del2       =   0.0000000000000000E+00
(PID.TID 0000.0001) %MON trcstat_ptracer25_max        =   5.4760068074739252E-02
(PID.TID 0000.0001) %MON trcstat_ptracer25_min        =   1.5179583513155209E-05
(PID.TID 0000.0001) %MON trcstat_ptracer25_mean       =   1.9028498437541231E-03
(PID.TID 0000.0001) %MON trcstat_ptracer25_sd         =   9.4571773106132215E-03
(PID.TID 0000.0001) %MON trcstat_ptracer25_del2       =   0.0000000000000000E+00
(PID.TID 0000.0001) %MON trcstat_ptracer26_max        =   6.3742523893458816E-02
(PID.TID 0000.0001) %MON trcstat_ptracer26_min        =   1.5179588566861460E-05
(PID.TID 0000.0001) %MON trcstat_ptracer26_mean       =   2.0317900841515836E-03
(PID.TID 0000.0001) %MON trcstat_ptracer26_sd         =   1.0188336519126645E-02
(PID.TID 0000.0001) %MON trcstat_ptracer26_del2       =   0.0000000000000000E+00
(PID.TID 0000.0001) %MON trcstat_ptracer27_max        =   5.4759291679872890E-03
(PID.TID 0000.0001) %MON trcstat_ptracer27_min        =   1.5179585788302776E-06
(PID.TID 0000.0001) %MON trcstat_ptracer27_mean       =   1.9028261168703238E-04
(PID.TID 0000.0001) %MON trcstat_ptracer27_sd         =   9.4567299134310542E-04
(PID.TID 0000.0001) %MON trcstat_ptracer27_del2       =   0.0000000000000000E+00
(PID.TID 0000.0001) %MON trcstat_ptracer28_max        =   5.4759291679872910E-02
(PID.TID 0000.0001) %MON trcstat_ptracer28_min        =   1.5179585788302700E-05
(PID.TID 0000.0001) %MON trcstat_ptracer28_mean       =   1.9028261168703229E-03
(PID.TID 0000.0001) %MON trcstat_ptracer28_sd         =   9.4567299134310553E-03
(PID.TID 0000.0001) %MON trcstat_ptracer28_del2       =   0.0000000000000000E+00
(PID.TID 0000.0001) %MON trcstat_ptracer29_max        =   6.3541502287286430E-02
(PID.TID 0000.0001) %MON trcstat_ptracer29_min        =   1.5179594039650656E-05
(PID.TID 0000.0001) %MON trcstat_ptracer29_mean       =   2.0283044196619448E-03
(PID.TID 0000.0001) %MON trcstat_ptracer29_sd         =   1.0167612482479731E-02
(PID.TID 0000.0001) %MON trcstat_ptracer29_del2       =   0.0000000000000000E+00
(PID.TID 0000.0001) %MON trcstat_ptracer30_max        =   5.4759676566024417E-03
(PID.TID 0000.0001) %MON trcstat_ptracer30_min        =   1.5179590447790740E-06
(PID.TID 0000.0001) %MON trcstat_ptracer30_mean       =   1.9028377798967417E-04
(PID.TID 0000.0001) %MON trcstat_ptracer30_sd         =   9.4563474774986939E-04
(PID.TID 0000.0001) %MON trcstat_ptracer30_del2       =   0.0000000000000000E+00
(PID.TID 0000.0001) %MON trcstat_ptracer31_max        =   5.4759676566024422E-02
(PID.TID 0000.0001) %MON trcstat_ptracer31_min        =   1.5179590447790673E-05
(PID.TID 0000.0001) %MON trcstat_ptracer31_mean       =   1.9028377798967428E-03
(PID.TID 0000.0001) %MON trcstat_ptracer31_sd         =   9.4563474774986920E-03
(PID.TID 0000.0001) %MON trcstat_ptracer31_del2       =   0.0000000000000000E+00
(PID.TID 0000.0001) %MON trcstat_ptracer32_max        =   6.2371026942391009E-02
(PID.TID 0000.0001) %MON trcstat_ptracer32_min        =   1.5179605177699696E-05
(PID.TID 0000.0001) %MON trcstat_ptracer32_mean       =   2.0162429809908846E-03
(PID.TID 0000.0001) %MON trcstat_ptracer32_sd         =   1.0096031338206548E-02
(PID.TID 0000.0001) %MON trcstat_ptracer32_del2       =   0.0000000000000000E+00
(PID.TID 0000.0001) %MON trcstat_ptracer33_max        =   5.4759994710757865E-03
(PID.TID 0000.0001) %MON trcstat_ptracer33_min        =   1.5179600435180444E-06
(PID.TID 0000.0001) %MON trcstat_ptracer33_mean       =   1.9028474829479690E-04
(PID.TID 0000.0001) %MON trcstat_ptracer33_sd         =   9.4557778346996270E-04
(PID.TID 0000.0001) %MON trcstat_ptracer33_del2       =   0.0000000000000000E+00
(PID.TID 0000.0001) %MON trcstat_ptracer34_max        =   5.4759994710757869E-02
(PID.TID 0000.0001) %MON trcstat_ptracer34_min        =   1.5179600435180371E-05
(PID.TID 0000.0001) %MON trcstat_ptracer34_mean       =   1.9028474829479692E-03
(PID.TID 0000.0001) %MON trcstat_ptracer34_sd         =   9.4557778346996257E-03
(PID.TID 0000.0001) %MON trcstat_ptracer34_del2       =   0.0000000000000000E+00
(PID.TID 0000.0001) %MON trcstat_ptracer35_max        =   6.1206436631764387E-02
(PID.TID 0000.0001) %MON trcstat_ptracer35_min        =   1.5179629128684631E-05
(PID.TID 0000.0001) %MON trcstat_ptracer35_mean       =   2.0043359397463041E-03
(PID.TID 0000.0001) %MON trcstat_ptracer35_sd         =   1.0025640089093218E-02
(PID.TID 0000.0001) %MON trcstat_ptracer35_del2       =   0.0000000000000000E+00
(PID.TID 0000.0001) %MON trcstat_ptracer36_max        =   5.4760257370040271E-03
(PID.TID 0000.0001) %MON trcstat_ptracer36_min        =   1.5179622778561135E-06
(PID.TID 0000.0001) %MON trcstat_ptracer36_mean       =   1.9028555272109041E-04
(PID.TID 0000.0001) %MON trcstat_ptracer36_sd         =   9.4549528873671973E-04
(PID.TID 0000.0001) %MON trcstat_ptracer36_del2       =   0.0000000000000000E+00
(PID.TID 0000.0001) %MON trcstat_ptracer37_max        =   5.4760257370040276E-02
(PID.TID 0000.0001) %MON trcstat_ptracer37_min        =   1.5179622778561062E-05
(PID.TID 0000.0001) %MON trcstat_ptracer37_mean       =   1.9028555272109038E-03
(PID.TID 0000.0001) %MON trcstat_ptracer37_sd         =   9.4549528873671962E-03
(PID.TID 0000.0001) %MON trcstat_ptracer37_del2       =   0.0000000000000000E+00
(PID.TID 0000.0001) %MON trcstat_ptracer38_max        =   6.0150247998605993E-02
(PID.TID 0000.0001) %MON trcstat_ptracer38_min        =   1.5179683338195112E-05
(PID.TID 0000.0001) %MON trcstat_ptracer38_mean       =   1.9932814383279620E-03
(PID.TID 0000.0001) %MON trcstat_ptracer38_sd         =   9.9603679874290772E-03
(PID.TID 0000.0001) %MON trcstat_ptracer38_del2       =   0.0000000000000000E+00
(PID.TID 0000.0001) %MON trcstat_ptracer39_max        =   5.4760520080275120E-02
(PID.TID 0000.0001) %MON trcstat_ptracer39_min        =   1.5179674742309465E-05
(PID.TID 0000.0001) %MON trcstat_ptracer39_mean       =   1.9028635934487535E-03
(PID.TID 0000.0001) %MON trcstat_ptracer39_sd         =   9.4537847441636992E-03
(PID.TID 0000.0001) %MON trcstat_ptracer39_del2       =   0.0000000000000000E+00
(PID.TID 0000.0001) %MON trcstat_ptracer40_max        =   5.9255116532485795E-02
(PID.TID 0000.0001) %MON trcstat_ptracer40_min        =   1.5179811500015155E-05
(PID.TID 0000.0001) %MON trcstat_ptracer40_mean       =   1.9831145871845460E-03
(PID.TID 0000.0001) %MON trcstat_ptracer40_sd         =   9.9001391427259011E-03
(PID.TID 0000.0001) %MON trcstat_ptracer40_del2       =   0.0000000000000000E+00
(PID.TID 0000.0001) %MON trcstat_ptracer41_max        =   5.8518460247529519E-02
(PID.TID 0000.0001) %MON trcstat_ptracer41_min        =   1.5180125437109727E-05
(PID.TID 0000.0001) %MON trcstat_ptracer41_mean       =   1.9738099900739057E-03
(PID.TID 0000.0001) %MON trcstat_ptracer41_sd         =   9.8445064853770921E-03
(PID.TID 0000.0001) %MON trcstat_ptracer41_del2       =   0.0000000000000000E+00
(PID.TID 0000.0001) %MON trcstat_ptracer42_max        =   5.7850078020575561E-02
(PID.TID 0000.0001) %MON trcstat_ptracer42_min        =   1.5180301594863953E-05
(PID.TID 0000.0001) %MON trcstat_ptracer42_mean       =   1.9653620000486716E-03
(PID.TID 0000.0001) %MON trcstat_ptracer42_sd         =   9.7930743421771622E-03
(PID.TID 0000.0001) %MON trcstat_ptracer42_del2       =   0.0000000000000000E+00
(PID.TID 0000.0001) %MON trcstat_ptracer43_max        =   5.7233926263131917E-02
(PID.TID 0000.0001) %MON trcstat_ptracer43_min        =   1.5180301117441534E-05
(PID.TID 0000.0001) %MON trcstat_ptracer43_mean       =   1.9577354799810019E-03
(PID.TID 0000.0001) %MON trcstat_ptracer43_sd         =   9.7452076664399194E-03
(PID.TID 0000.0001) %MON trcstat_ptracer43_del2       =   0.0000000000000000E+00
(PID.TID 0000.0001) %MON trcstat_ptracer44_max        =   5.5117855455788921E-02
(PID.TID 0000.0001) %MON trcstat_ptracer44_min        =   1.5273185383420309E-05
(PID.TID 0000.0001) %MON trcstat_ptracer44_mean       =   1.9153560921778624E-03
(PID.TID 0000.0001) %MON trcstat_ptracer44_sd         =   9.5205160786786848E-03
(PID.TID 0000.0001) %MON trcstat_ptracer44_del2       =   0.0000000000000000E+00
(PID.TID 0000.0001) %MON trcstat_ptracer45_max        =   5.5117834094329000E-02
(PID.TID 0000.0001) %MON trcstat_ptracer45_min        =   1.5273185383419879E-05
(PID.TID 0000.0001) %MON trcstat_ptracer45_mean       =   1.9153554547992363E-03
(PID.TID 0000.0001) %MON trcstat_ptracer45_sd         =   9.5205126288930870E-03
(PID.TID 0000.0001) %MON trcstat_ptracer45_del2       =   0.0000000000000000E+00
(PID.TID 0000.0001) %MON trcstat_ptracer46_max        =   5.5117816411403432E-02
(PID.TID 0000.0001) %MON trcstat_ptracer46_min        =   1.5273185383419520E-05
(PID.TID 0000.0001) %MON trcstat_ptracer46_mean       =   1.9153549271761902E-03
(PID.TID 0000.0001) %MON trcstat_ptracer46_sd         =   9.5205097731518255E-03
(PID.TID 0000.0001) %MON trcstat_ptracer46_del2       =   0.0000000000000000E+00
(PID.TID 0000.0001) %MON trcstat_ptracer47_max        =   5.5117801773570028E-02
(PID.TID 0000.0001) %MON trcstat_ptracer47_min        =   1.5273185383419225E-05
(PID.TID 0000.0001) %MON trcstat_ptracer47_mean       =   1.9153544904082806E-03
(PID.TID 0000.0001) %MON trcstat_ptracer47_sd         =   9.5205074091572143E-03
(PID.TID 0000.0001) %MON trcstat_ptracer47_del2       =   0.0000000000000000E+00
(PID.TID 0000.0001) %MON trcstat_ptracer48_max        =   5.5117801632483573E-02
(PID.TID 0000.0001) %MON trcstat_ptracer48_min        =   1.5273185383419225E-05
(PID.TID 0000.0001) %MON trcstat_ptracer48_mean       =   1.9153544863842501E-03
(PID.TID 0000.0001) %MON trcstat_ptracer48_sd         =   9.5205073869144910E-03
(PID.TID 0000.0001) %MON trcstat_ptracer48_del2       =   0.0000000000000000E+00
(PID.TID 0000.0001) %MON trcstat_ptracer49_max        =   5.5117937376983790E-02
(PID.TID 0000.0001) %MON trcstat_ptracer49_min        =   1.5273185383422102E-05
(PID.TID 0000.0001) %MON trcstat_ptracer49_mean       =   1.9153586464944322E-03
(PID.TID 0000.0001) %MON trcstat_ptracer49_sd         =   9.5205299142715940E-03
(PID.TID 0000.0001) %MON trcstat_ptracer49_del2       =   0.0000000000000000E+00
(PID.TID 0000.0001) %MON trcstat_ptracer50_max        =   5.5117901886428039E-02
(PID.TID 0000.0001) %MON trcstat_ptracer50_min        =   1.5273185383421360E-05
(PID.TID 0000.0001) %MON trcstat_ptracer50_mean       =   1.9153575648656743E-03
(PID.TID 0000.0001) %MON trcstat_ptracer50_sd         =   9.5205240573332794E-03
(PID.TID 0000.0001) %MON trcstat_ptracer50_del2       =   0.0000000000000000E+00
(PID.TID 0000.0001) %MON trcstat_ptracer51_max        =   5.5117872501585681E-02
(PID.TID 0000.0001) %MON trcstat_ptracer51_min        =   1.5273185383420753E-05
(PID.TID 0000.0001) %MON trcstat_ptracer51_mean       =   1.9153566632995841E-03
(PID.TID 0000.0001) %MON trcstat_ptracer51_sd         =   9.5205191743250924E-03
(PID.TID 0000.0001) %MON trcstat_ptracer51_del2       =   0.0000000000000000E+00
(PID.TID 0000.0001) %MON trcstat_ptracer52_max        =   5.5117848178774902E-02
(PID.TID 0000.0001) %MON trcstat_ptracer52_min        =   1.5273185383420242E-05
(PID.TID 0000.0001) %MON trcstat_ptracer52_mean       =   1.9153559192978116E-03
(PID.TID 0000.0001) %MON trcstat_ptracer52_sd         =   9.5205151450800489E-03
(PID.TID 0000.0001) %MON trcstat_ptracer52_del2       =   0.0000000000000000E+00
(PID.TID 0000.0001) %MON trcstat_ptracer53_max        =   5.5117819410892777E-02
(PID.TID 0000.0001) %MON trcstat_ptracer53_min        =   1.5273185383419635E-05
(PID.TID 0000.0001) %MON trcstat_ptracer53_mean       =   1.9153550459026743E-03
(PID.TID 0000.0001) %MON trcstat_ptracer53_sd         =   9.5205104170729884E-03
(PID.TID 0000.0001) %MON trcstat_ptracer53_del2       =   0.0000000000000000E+00
(PID.TID 0000.0001) %MON trcstat_ptracer54_max        =   5.5117750430084600E-02
(PID.TID 0000.0001) %MON trcstat_ptracer54_min        =   1.5273185383418185E-05
(PID.TID 0000.0001) %MON trcstat_ptracer54_mean       =   1.9153529682931025E-03
(PID.TID 0000.0001) %MON trcstat_ptracer54_sd         =   9.5204991734872992E-03
(PID.TID 0000.0001) %MON trcstat_ptracer54_del2       =   0.0000000000000000E+00
(PID.TID 0000.0001) %MON trcstat_ptracer55_max        =   5.5117747144505465E-02
(PID.TID 0000.0001) %MON trcstat_ptracer55_min        =   1.5273185383418121E-05
(PID.TID 0000.0001) %MON trcstat_ptracer55_mean       =   1.9153528669719230E-03
(PID.TID 0000.0001) %MON trcstat_ptracer55_sd         =   9.5204986242478726E-03
(PID.TID 0000.0001) %MON trcstat_ptracer55_del2       =   0.0000000000000000E+00
(PID.TID 0000.0001) %MON trcstat_ptracer56_max        =   5.5117744425726145E-02
(PID.TID 0000.0001) %MON trcstat_ptracer56_min        =   1.5273185383418066E-05
(PID.TID 0000.0001) %MON trcstat_ptracer56_mean       =   1.9153527835409324E-03
(PID.TID 0000.0001) %MON trcstat_ptracer56_sd         =   9.5204981720510007E-03
(PID.TID 0000.0001) %MON trcstat_ptracer56_del2       =   0.0000000000000000E+00
(PID.TID 0000.0001) %MON trcstat_ptracer57_max        =   5.5117742176149613E-02
(PID.TID 0000.0001) %MON trcstat_ptracer57_min        =   1.5273185383418022E-05
(PID.TID 0000.0001) %MON trcstat_ptracer57_mean       =   1.9153527148069649E-03
(PID.TID 0000.0001) %MON trcstat_ptracer57_sd         =   9.5204977995559173E-03
(PID.TID 0000.0001) %MON trcstat_ptracer57_del2       =   0.0000000000000000E+00
(PID.TID 0000.0001) %MON trcstat_ptracer58_max        =   1.3815993316326205E-02
(PID.TID 0000.0001) %MON trcstat_ptracer58_min        =   3.1428920165166472E-06
(PID.TID 0000.0001) %MON trcstat_ptracer58_mean       =   4.2779205940914137E-04
(PID.TID 0000.0001) %MON trcstat_ptracer58_sd         =   2.1193222285781077E-03
(PID.TID 0000.0001) %MON trcstat_ptracer58_del2       =   0.0000000000000000E+00
(PID.TID 0000.0001) %MON trcstat_ptracer59_max        =   1.1417945272877509E-02
(PID.TID 0000.0001) %MON trcstat_ptracer59_min        =   2.7460188418203367E-06
(PID.TID 0000.0001) %MON trcstat_ptracer59_mean       =   3.6242615346434307E-04
(PID.TID 0000.0001) %MON trcstat_ptracer59_sd         =   1.7952606070490815E-03
(PID.TID 0000.0001) %MON trcstat_ptracer59_del2       =   0.0000000000000000E+00
(PID.TID 0000.0001) %MON trcstat_ptracer60_max        =   9.7561746117761569E-03
(PID.TID 0000.0001) %MON trcstat_ptracer60_min        =   2.4710282416227018E-06
(PID.TID 0000.0001) %MON trcstat_ptracer60_mean       =   3.1796454440421670E-04
(PID.TID 0000.0001) %MON trcstat_ptracer60_sd         =   1.5755889623549802E-03
(PID.TID 0000.0001) %MON trcstat_ptracer60_del2       =   0.0000000000000000E+00
(PID.TID 0000.0001) %MON trcstat_ptracer61_max        =   8.6540693080178269E-03
(PID.TID 0000.0001) %MON trcstat_ptracer61_min        =   2.2834593770517992E-06
(PID.TID 0000.0001) %MON trcstat_ptracer61_mean       =   2.8887828025160177E-04
(PID.TID 0000.0001) %MON trcstat_ptracer61_sd         =   1.4324869292169345E-03
(PID.TID 0000.0001) %MON trcstat_ptracer61_del2       =   0.0000000000000000E+00
(PID.TID 0000.0001) %MON trcstat_ptracer62_max        =   1.8253356024913079E-03
(PID.TID 0000.0001) %MON trcstat_ptracer62_min        =   5.0598611710517612E-07
(PID.TID 0000.0001) %MON trcstat_ptracer62_mean       =   6.3428328125137456E-05
(PID.TID 0000.0001) %MON trcstat_ptracer62_sd         =   3.1523924368710737E-04
(PID.TID 0000.0001) %MON trcstat_ptracer62_del2       =   0.0000000000000000E+00
(PID.TID 0000.0001) %MON trcstat_ptracer63_max        =   7.9547380531731389E-03
(PID.TID 0000.0001) %MON trcstat_ptracer63_min        =   2.1577705292047732E-06
(PID.TID 0000.0001) %MON trcstat_ptracer63_mean       =   2.7060771096791602E-04
(PID.TID 0000.0001) %MON trcstat_ptracer63_sd         =   1.3430077752259646E-03
(PID.TID 0000.0001) %MON trcstat_ptracer63_del2       =   0.0000000000000000E+00
(PID.TID 0000.0001) %MON trcstat_ptracer64_max        =   7.5553538168781692E-03
(PID.TID 0000.0001) %MON trcstat_ptracer64_min        =   2.0756494259788026E-06
(PID.TID 0000.0001) %MON trcstat_ptracer64_mean       =   2.6042045115017367E-04
(PID.TID 0000.0001) %MON trcstat_ptracer64_sd         =   1.2938708054409810E-03
(PID.TID 0000.0001) %MON trcstat_ptracer64_del2       =   0.0000000000000000E+00
(PID.TID 0000.0001) %MON trcstat_ptracer65_max        =   1.8253097226624301E-03
(PID.TID 0000.0001) %MON trcstat_ptracer65_min        =   5.0598619294342582E-07
(PID.TID 0000.0001) %MON trcstat_ptracer65_mean       =   6.3427537229010750E-05
(PID.TID 0000.0001) %MON trcstat_ptracer65_sd         =   3.1522433044770177E-04
(PID.TID 0000.0001) %MON trcstat_ptracer65_del2       =   0.0000000000000000E+00
(PID.TID 0000.0001) %MON trcstat_ptracer66_max        =   7.5315678703738063E-03
(PID.TID 0000.0001) %MON trcstat_ptracer66_min        =   2.0756494259788026E-06
(PID.TID 0000.0001) %MON trcstat_ptracer66_mean       =   2.5964057062498569E-04
(PID.TID 0000.0001) %MON trcstat_ptracer66_sd         =   1.2895674547264513E-03
(PID.TID 0000.0001) %MON trcstat_ptracer66_del2       =   0.0000000000000000E+00
(PID.TID 0000.0001) %MON trcstat_ptracer67_max        =   7.3188696952359031E-03
(PID.TID 0000.0001) %MON trcstat_ptracer67_min        =   2.0239453930387552E-06
(PID.TID 0000.0001) %MON trcstat_ptracer67_mean       =   2.5406841840124711E-04
(PID.TID 0000.0001) %MON trcstat_ptracer67_sd         =   1.2628396224406990E-03
(PID.TID 0000.0001) %MON trcstat_ptracer67_del2       =   0.0000000000000000E+00
(PID.TID 0000.0001) %MON trcstat_ptracer68_max        =   1.8253225522008140E-03
(PID.TID 0000.0001) %MON trcstat_ptracer68_min        =   5.0598634825969134E-07
(PID.TID 0000.0001) %MON trcstat_ptracer68_mean       =   6.3427925996558079E-05
(PID.TID 0000.0001) %MON trcstat_ptracer68_sd         =   3.1521158258328980E-04
(PID.TID 0000.0001) %MON trcstat_ptracer68_del2       =   0.0000000000000000E+00
(PID.TID 0000.0001) %MON trcstat_ptracer69_max        =   7.3012902088032561E-03
(PID.TID 0000.0001) %MON trcstat_ptracer69_min        =   2.0239453930387552E-06
(PID.TID 0000.0001) %MON trcstat_ptracer69_mean       =   2.5371170398623232E-04
(PID.TID 0000.0001) %MON trcstat_ptracer69_sd         =   1.2608463303331592E-03
(PID.TID 0000.0001) %MON trcstat_ptracer69_del2       =   0.0000000000000000E+00
(PID.TID 0000.0001) %MON trcstat_ptracer70_max        =   7.3013326281010493E-03
(PID.TID 0000.0001) %MON trcstat_ptracer70_min        =   2.0239467246907163E-06
(PID.TID 0000.0001) %MON trcstat_ptracer70_mean       =   2.5371299772639576E-04
(PID.TID 0000.0001) %MON trcstat_ptracer70_sd         =   1.2607703779599503E-03
(PID.TID 0000.0001) %MON trcstat_ptracer70_del2       =   0.0000000000000000E+00
(PID.TID 0000.0001) %MON trcstat_ptracer71_max        =   1.8253331570252623E-03
(PID.TID 0000.0001) %MON trcstat_ptracer71_min        =   5.0598668117268161E-07
(PID.TID 0000.0001) %MON trcstat_ptracer71_mean       =   6.3428249431598941E-05
(PID.TID 0000.0001) %MON trcstat_ptracer71_sd         =   3.1519259448998757E-04
(PID.TID 0000.0001) %MON trcstat_ptracer71_del2       =   0.0000000000000000E+00
(PID.TID 0000.0001) %MON trcstat_ptracer72_max        =   7.3013326281010493E-03
(PID.TID 0000.0001) %MON trcstat_ptracer72_min        =   2.0239467246907163E-06
(PID.TID 0000.0001) %MON trcstat_ptracer72_mean       =   2.5371299772639576E-04
(PID.TID 0000.0001) %MON trcstat_ptracer72_sd         =   1.2607703779599503E-03
(PID.TID 0000.0001) %MON trcstat_ptracer72_del2       =   0.0000000000000000E+00
(PID.TID 0000.0001) %MON trcstat_ptracer73_max        =   7.3013676493387022E-03
(PID.TID 0000.0001) %MON trcstat_ptracer73_min        =   2.0239497038081408E-06
(PID.TID 0000.0001) %MON trcstat_ptracer73_mean       =   2.5371407029478729E-04
(PID.TID 0000.0001) %MON trcstat_ptracer73_sd         =   1.2606603849822928E-03
(PID.TID 0000.0001) %MON trcstat_ptracer73_del2       =   0.0000000000000000E+00
(PID.TID 0000.0001) %MON trcstat_ptracer74_max        =   1.8253419123346755E-03
(PID.TID 0000.0001) %MON trcstat_ptracer74_min        =   5.0598742595203784E-07
(PID.TID 0000.0001) %MON trcstat_ptracer74_mean       =   6.3428517573696822E-05
(PID.TID 0000.0001) %MON trcstat_ptracer74_sd         =   3.1516509624557321E-04
(PID.TID 0000.0001) %MON trcstat_ptracer74_del2       =   0.0000000000000000E+00
(PID.TID 0000.0001) %MON trcstat_ptracer75_max        =   7.3013676493387022E-03
(PID.TID 0000.0001) %MON trcstat_ptracer75_min        =   2.0239497038081408E-06
(PID.TID 0000.0001) %MON trcstat_ptracer75_mean       =   2.5371407029478729E-04
(PID.TID 0000.0001) %MON trcstat_ptracer75_sd         =   1.2606603849822928E-03
(PID.TID 0000.0001) %MON trcstat_ptracer75_del2       =   0.0000000000000000E+00
(PID.TID 0000.0001) %MON trcstat_ptracer76_max        =   7.3014026773700171E-03
(PID.TID 0000.0001) %MON trcstat_ptracer76_min        =   2.0239566323079281E-06
(PID.TID 0000.0001) %MON trcstat_ptracer76_mean       =   2.5371514579316715E-04
(PID.TID 0000.0001) %MON trcstat_ptracer76_sd         =   1.2605046325551601E-03
(PID.TID 0000.0001) %MON trcstat_ptracer76_del2       =   0.0000000000000000E+00
(PID.TID 0000.0001) %MON trcstat_ptracer77_max        =   7.3014026773700171E-03
(PID.TID 0000.0001) %MON trcstat_ptracer77_min        =   2.0239566323079281E-06
(PID.TID 0000.0001) %MON trcstat_ptracer77_mean       =   2.5371514579316715E-04
(PID.TID 0000.0001) %MON trcstat_ptracer77_sd         =   1.2605046325551601E-03
(PID.TID 0000.0001) %MON trcstat_ptracer77_del2       =   0.0000000000000000E+00
(PID.TID 0000.0001) %MON trcstat_ptracer78_max        =   7.3014785143800014E-03
(PID.TID 0000.0001) %MON trcstat_ptracer78_min        =   2.0239733022864182E-06
(PID.TID 0000.0001) %MON trcstat_ptracer78_mean       =   2.5371744547770430E-04
(PID.TID 0000.0001) %MON trcstat_ptracer78_sd         =   1.2602917706693250E-03
(PID.TID 0000.0001) %MON trcstat_ptracer78_del2       =   0.0000000000000000E+00
(PID.TID 0000.0001) %MON trcstat_ptracer79_max        =   7.3014878512954306E-03
(PID.TID 0000.0001) %MON trcstat_ptracer79_min        =   2.0240145763505094E-06
(PID.TID 0000.0001) %MON trcstat_ptracer79_mean       =   2.5371776821050713E-04
(PID.TID 0000.0001) %MON trcstat_ptracer79_sd         =   1.2599796401222346E-03
(PID.TID 0000.0001) %MON trcstat_ptracer79_del2       =   0.0000000000000000E+00
(PID.TID 0000.0001) %MON trcstat_ptracer80_max        =   7.3014952279487856E-03
(PID.TID 0000.0001) %MON trcstat_ptracer80_min        =   2.0240402070840357E-06
(PID.TID 0000.0001) %MON trcstat_ptracer80_mean       =   2.5371804668839816E-04
(PID.TID 0000.0001) %MON trcstat_ptracer80_sd         =   1.2595443997975664E-03
(PID.TID 0000.0001) %MON trcstat_ptracer80_del2       =   0.0000000000000000E+00
(PID.TID 0000.0001) %MON trcstat_ptracer81_max        =   7.3015008424130246E-03
(PID.TID 0000.0001) %MON trcstat_ptracer81_min        =   2.0240401385793474E-06
(PID.TID 0000.0001) %MON trcstat_ptracer81_mean       =   2.5371829343551737E-04
(PID.TID 0000.0001) %MON trcstat_ptracer81_sd         =   1.2589390683111269E-03
(PID.TID 0000.0001) %MON trcstat_ptracer81_del2       =   0.0000000000000000E+00
(PID.TID 0000.0001) %MON trcstat_ptracer82_max        =   7.3491917521591099E-03
(PID.TID 0000.0001) %MON trcstat_ptracer82_min        =   2.0364247177922001E-06
(PID.TID 0000.0001) %MON trcstat_ptracer82_mean       =   2.5538477595729521E-04
(PID.TID 0000.0001) %MON trcstat_ptracer82_sd         =   1.2694235521215444E-03
(PID.TID 0000.0001) %MON trcstat_ptracer82_del2       =   0.0000000000000000E+00
(PID.TID 0000.0001) %MON trcstat_ptracer83_max        =   7.3491249139713876E-03
(PID.TID 0000.0001) %MON trcstat_ptracer83_min        =   2.0364247177909016E-06
(PID.TID 0000.0001) %MON trcstat_ptracer83_mean       =   2.5538299059117426E-04
(PID.TID 0000.0001) %MON trcstat_ptracer83_sd         =   1.2694139165267365E-03
(PID.TID 0000.0001) %MON trcstat_ptracer83_del2       =   0.0000000000000000E+00
(PID.TID 0000.0001) %MON trcstat_ptracer84_max        =   7.3490811591780444E-03
(PID.TID 0000.0001) %MON trcstat_ptracer84_min        =   2.0364247177900427E-06
(PID.TID 0000.0001) %MON trcstat_ptracer84_mean       =   2.5538177499628850E-04
(PID.TID 0000.0001) %MON trcstat_ptracer84_sd         =   1.2694073487143462E-03
(PID.TID 0000.0001) %MON trcstat_ptracer84_del2       =   0.0000000000000000E+00
(PID.TID 0000.0001) %MON trcstat_ptracer85_max        =   7.3490511613210551E-03
(PID.TID 0000.0001) %MON trcstat_ptracer85_min        =   2.0364247177894473E-06
(PID.TID 0000.0001) %MON trcstat_ptracer85_mean       =   2.5538091442763098E-04
(PID.TID 0000.0001) %MON trcstat_ptracer85_sd         =   1.2694026953035890E-03
(PID.TID 0000.0001) %MON trcstat_ptracer85_del2       =   0.0000000000000000E+00
(PID.TID 0000.0001) %MON trcstat_ptracer86_max        =   7.3490308539776086E-03
(PID.TID 0000.0001) %MON trcstat_ptracer86_min        =   2.0364247177890403E-06
(PID.TID 0000.0001) %MON trcstat_ptracer86_mean       =   2.5538031878873189E-04
(PID.TID 0000.0001) %MON trcstat_ptracer86_sd         =   1.2693994727786258E-03
(PID.TID 0000.0001) %MON trcstat_ptracer86_del2       =   0.0000000000000000E+00
(PID.TID 0000.0001) %MON trcstat_ptracer87_max        =   7.3490308525289670E-03
(PID.TID 0000.0001) %MON trcstat_ptracer87_min        =   2.0364247177890403E-06
(PID.TID 0000.0001) %MON trcstat_ptracer87_mean       =   2.5538031874576165E-04
(PID.TID 0000.0001) %MON trcstat_ptracer87_sd         =   1.2693994725433320E-03
(PID.TID 0000.0001) %MON trcstat_ptracer87_del2       =   0.0000000000000000E+00
(PID.TID 0000.0001) %MON trcstat_ptracer88_max        =   7.3490308529086069E-03
(PID.TID 0000.0001) %MON trcstat_ptracer88_min        =   2.0364247177890403E-06
(PID.TID 0000.0001) %MON trcstat_ptracer88_mean       =   2.5538031875700119E-04
(PID.TID 0000.0001) %MON trcstat_ptracer88_sd         =   1.2693994726048802E-03
(PID.TID 0000.0001) %MON trcstat_ptracer88_del2       =   0.0000000000000000E+00
(PID.TID 0000.0001) %MON trcstat_ptracer89_max        =   7.3490308532229093E-03
(PID.TID 0000.0001) %MON trcstat_ptracer89_min        =   2.0364247177890403E-06
(PID.TID 0000.0001) %MON trcstat_ptracer89_mean       =   2.5538031876632490E-04
(PID.TID 0000.0001) %MON trcstat_ptracer89_sd         =   1.2693994726559398E-03
(PID.TID 0000.0001) %MON trcstat_ptracer89_del2       =   0.0000000000000000E+00
(PID.TID 0000.0001) %MON trcstat_ptracer90_max        =   7.3490308534830779E-03
(PID.TID 0000.0001) %MON trcstat_ptracer90_min        =   2.0364247177890403E-06
(PID.TID 0000.0001) %MON trcstat_ptracer90_mean       =   2.5538031877403461E-04
(PID.TID 0000.0001) %MON trcstat_ptracer90_sd         =   1.2693994726981597E-03
(PID.TID 0000.0001) %MON trcstat_ptracer90_del2       =   0.0000000000000000E+00
(PID.TID 0000.0001) %MON trcstat_ptracer91_max        =   7.3490308537911284E-03
(PID.TID 0000.0001) %MON trcstat_ptracer91_min        =   2.0364247177890403E-06
(PID.TID 0000.0001) %MON trcstat_ptracer91_mean       =   2.5538031878313995E-04
(PID.TID 0000.0001) %MON trcstat_ptracer91_sd         =   1.2693994727480159E-03
(PID.TID 0000.0001) %MON trcstat_ptracer91_del2       =   0.0000000000000000E+00
(PID.TID 0000.0001) %MON trcstat_ptracer92_max        =   7.3490308545305144E-03
(PID.TID 0000.0001) %MON trcstat_ptracer92_min        =   2.0364247177890403E-06
(PID.TID 0000.0001) %MON trcstat_ptracer92_mean       =   2.5538031880493231E-04
(PID.TID 0000.0001) %MON trcstat_ptracer92_sd         =   1.2693994728673339E-03
(PID.TID 0000.0001) %MON trcstat_ptracer92_del2       =   0.0000000000000000E+00
(PID.TID 0000.0001) %MON trcstat_ptracer93_max        =   7.3490308545654474E-03
(PID.TID 0000.0001) %MON trcstat_ptracer93_min        =   2.0364247177890403E-06
(PID.TID 0000.0001) %MON trcstat_ptracer93_mean       =   2.5538031880597016E-04
(PID.TID 0000.0001) %MON trcstat_ptracer93_sd         =   1.2693994728730194E-03
(PID.TID 0000.0001) %MON trcstat_ptracer93_del2       =   0.0000000000000000E+00
(PID.TID 0000.0001) %MON trcstat_ptracer94_max        =   7.3490308545943600E-03
(PID.TID 0000.0001) %MON trcstat_ptracer94_min        =   2.0364247177890403E-06
(PID.TID 0000.0001) %MON trcstat_ptracer94_mean       =   2.5538031880682782E-04
(PID.TID 0000.0001) %MON trcstat_ptracer94_sd         =   1.2693994728777173E-03
(PID.TID 0000.0001) %MON trcstat_ptracer94_del2       =   0.0000000000000000E+00
(PID.TID 0000.0001) %MON trcstat_ptracer95_max        =   7.3490308546182905E-03
(PID.TID 0000.0001) %MON trcstat_ptracer95_min        =   2.0364247177890403E-06
(PID.TID 0000.0001) %MON trcstat_ptracer95_mean       =   2.5538031880753651E-04
(PID.TID 0000.0001) %MON trcstat_ptracer95_sd         =   1.2693994728815996E-03
(PID.TID 0000.0001) %MON trcstat_ptracer95_del2       =   0.0000000000000000E+00
(PID.TID 0000.0001) %MON trcstat_ptracer96_max        =   5.4549308710344195E-04
(PID.TID 0000.0001) %MON trcstat_ptracer96_min        =   1.5122063731821642E-07
(PID.TID 0000.0001) %MON trcstat_ptracer96_mean       =   1.8955340984002851E-05
(PID.TID 0000.0001) %MON trcstat_ptracer96_sd         =   9.4213717682186453E-05
(PID.TID 0000.0001) %MON trcstat_ptracer96_del2       =   0.0000000000000000E+00
(PID.TID 0000.0001) %MON trcstat_ptracer97_max        =   5.3737918759282999E-04
(PID.TID 0000.0001) %MON trcstat_ptracer97_min        =   1.4898064071971510E-07
(PID.TID 0000.0001) %MON trcstat_ptracer97_mean       =   1.8673389139902575E-05
(PID.TID 0000.0001) %MON trcstat_ptracer97_sd         =   9.2811185466923167E-05
(PID.TID 0000.0001) %MON trcstat_ptracer97_del2       =   0.0000000000000000E+00
(PID.TID 0000.0001) %MON trcstat_ptracer98_max        =   5.2524969950941663E-04
(PID.TID 0000.0001) %MON trcstat_ptracer98_min        =   1.4562875775028387E-07
(PID.TID 0000.0001) %MON trcstat_ptracer98_mean       =   1.8251903949140728E-05
(PID.TID 0000.0001) %MON trcstat_ptracer98_sd         =   9.0714786351160740E-05
(PID.TID 0000.0001) %MON trcstat_ptracer98_del2       =   0.0000000000000000E+00
(PID.TID 0000.0001) %MON trcstat_ptracer99_max        =   5.1208893342252174E-04
(PID.TID 0000.0001) %MON trcstat_ptracer99_min        =   1.4198998566248587E-07
(PID.TID 0000.0001) %MON trcstat_ptracer99_mean       =   1.7794583246004213E-05
(PID.TID 0000.0001) %MON trcstat_ptracer99_sd         =   8.8439926127360929E-05
(PID.TID 0000.0001) %MON trcstat_ptracer99_del2       =   0.0000000000000000E+00
(PID.TID 0000.0001) %MON trcstat_ptracer0a_max        =   4.9982720088038680E-05
(PID.TID 0000.0001) %MON trcstat_ptracer0a_min        =   1.3859875546842510E-08
(PID.TID 0000.0001) %MON trcstat_ptracer0a_mean       =   1.7368507637771987E-06
(PID.TID 0000.0001) %MON trcstat_ptracer0a_sd         =   8.6319897645727614E-06
(PID.TID 0000.0001) %MON trcstat_ptracer0a_del2       =   0.0000000000000000E+00
(PID.TID 0000.0001) %MON trcstat_ptracer0b_max        =   4.9982720088038676E-04
(PID.TID 0000.0001) %MON trcstat_ptracer0b_min        =   1.3859875546842446E-07
(PID.TID 0000.0001) %MON trcstat_ptracer0b_mean       =   1.7368507637771988E-05
(PID.TID 0000.0001) %MON trcstat_ptracer0b_sd         =   8.6319897645727577E-05
(PID.TID 0000.0001) %MON trcstat_ptracer0b_del2       =   0.0000000000000000E+00
(PID.TID 0000.0001) %MON trcstat_ptracer0c_max        =   5.0017160892385881E-04
(PID.TID 0000.0001) %MON trcstat_ptracer0c_min        =   1.3569820510864418E-07
(PID.TID 0000.0001) %MON trcstat_ptracer0c_mean       =   1.7175378627400006E-05
(PID.TID 0000.0001) %MON trcstat_ptracer0c_sd         =   8.5460143297845864E-05
(PID.TID 0000.0001) %MON trcstat_ptracer0c_del2       =   0.0000000000000000E+00
(PID.TID 0000.0001) %MON trcstat_ptracer0d_max        =   4.8933615857928477E-05
(PID.TID 0000.0001) %MON trcstat_ptracer0d_min        =   1.3569820165258317E-08
(PID.TID 0000.0001) %MON trcstat_ptracer0d_mean       =   1.7003992753072111E-06
(PID.TID 0000.0001) %MON trcstat_ptracer0d_sd         =   8.4505093963844933E-06
(PID.TID 0000.0001) %MON trcstat_ptracer0d_del2       =   0.0000000000000000E+00
(PID.TID 0000.0001) %MON trcstat_ptracer0e_max        =   4.8933615857928473E-04
(PID.TID 0000.0001) %MON trcstat_ptracer0e_min        =   1.3569820165258247E-07
(PID.TID 0000.0001) %MON trcstat_ptracer0e_mean       =   1.7003992753072118E-05
(PID.TID 0000.0001) %MON trcstat_ptracer0e_sd         =   8.4505093963844943E-05
(PID.TID 0000.0001) %MON trcstat_ptracer0e_del2       =   0.0000000000000000E+00
(PID.TID 0000.0001) %MON trcstat_ptracer0f_max        =   4.8818860063526377E-04
(PID.TID 0000.0001) %MON trcstat_ptracer0f_min        =   1.3334576542169334E-07
(PID.TID 0000.0001) %MON trcstat_ptracer0f_mean       =   1.6828556354890166E-05
(PID.TID 0000.0001) %MON trcstat_ptracer0f_sd         =   8.3700540521701943E-05
(PID.TID 0000.0001) %MON trcstat_ptracer0f_del2       =   0.0000000000000000E+00
(PID.TID 0000.0001) %MON trcstat_ptracer0g_max        =   4.8084122655336682E-05
(PID.TID 0000.0001) %MON trcstat_ptracer0g_min        =   1.3334576239110448E-08
(PID.TID 0000.0001) %MON trcstat_ptracer0g_mean       =   1.6708793601338433E-06
(PID.TID 0000.0001) %MON trcstat_ptracer0g_sd         =   8.3034007743279767E-06
(PID.TID 0000.0001) %MON trcstat_ptracer0g_del2       =   0.0000000000000000E+00
(PID.TID 0000.0001) %MON trcstat_ptracer0h_max        =   4.8084122655336681E-04
(PID.TID 0000.0001) %MON trcstat_ptracer0h_min        =   1.3334576239110382E-07
(PID.TID 0000.0001) %MON trcstat_ptracer0h_mean       =   1.6708793601338433E-05
(PID.TID 0000.0001) %MON trcstat_ptracer0h_sd         =   8.3034007743279764E-05
(PID.TID 0000.0001) %MON trcstat_ptracer0h_del2       =   0.0000000000000000E+00
(PID.TID 0000.0001) %MON trcstat_ptracer0i_max        =   4.7848645080358232E-04
(PID.TID 0000.0001) %MON trcstat_ptracer0i_min        =   1.3150392765687369E-07
(PID.TID 0000.0001) %MON trcstat_ptracer0i_mean       =   1.6554828070643323E-05
(PID.TID 0000.0001) %MON trcstat_ptracer0i_sd         =   8.2308602360948568E-05
(PID.TID 0000.0001) %MON trcstat_ptracer0i_del2       =   0.0000000000000000E+00
(PID.TID 0000.0001) %MON trcstat_ptracer0j_max        =   4.7419559780720673E-05
(PID.TID 0000.0001) %MON trcstat_ptracer0j_min        =   1.3150392495497791E-08
(PID.TID 0000.0001) %MON trcstat_ptracer0j_mean       =   1.6477856394454919E-06
(PID.TID 0000.0001) %MON trcstat_ptracer0j_sd         =   8.1880950980324916E-06
(PID.TID 0000.0001) %MON trcstat_ptracer0j_del2       =   0.0000000000000000E+00
(PID.TID 0000.0001) %MON trcstat_ptracer0k_max        =   4.7419559780720674E-04
(PID.TID 0000.0001) %MON trcstat_ptracer0k_min        =   1.3150392495497726E-07
(PID.TID 0000.0001) %MON trcstat_ptracer0k_mean       =   1.6477856394454919E-05
(PID.TID 0000.0001) %MON trcstat_ptracer0k_sd         =   8.1880950980324933E-05
(PID.TID 0000.0001) %MON trcstat_ptracer0k_del2       =   0.0000000000000000E+00
(PID.TID 0000.0001) %MON trcstat_ptracer0l_max        =   4.7141262135349989E-04
(PID.TID 0000.0001) %MON trcstat_ptracer0l_min        =   1.3009740199245032E-07
(PID.TID 0000.0001) %MON trcstat_ptracer0l_mean       =   1.6350367675920445E-05
(PID.TID 0000.0001) %MON trcstat_ptracer0l_sd         =   8.1268195591588561E-05
(PID.TID 0000.0001) %MON trcstat_ptracer0l_del2       =   0.0000000000000000E+00
(PID.TID 0000.0001) %MON trcstat_ptracer0m_max        =   4.6912699374009444E-05
(PID.TID 0000.0001) %MON trcstat_ptracer0m_min        =   1.3009739955338582E-08
(PID.TID 0000.0001) %MON trcstat_ptracer0m_mean       =   1.6301719034762270E-06
(PID.TID 0000.0001) %MON trcstat_ptracer0m_sd         =   8.0998307148785199E-06
(PID.TID 0000.0001) %MON trcstat_ptracer0m_del2       =   0.0000000000000000E+00
(PID.TID 0000.0001) %MON trcstat_ptracer0n_max        =   4.6912699374009444E-04
(PID.TID 0000.0001) %MON trcstat_ptracer0n_min        =   1.3009739955338512E-07
(PID.TID 0000.0001) %MON trcstat_ptracer0n_mean       =   1.6301719034762272E-05
(PID.TID 0000.0001) %MON trcstat_ptracer0n_sd         =   8.0998307148785165E-05
(PID.TID 0000.0001) %MON trcstat_ptracer0n_del2       =   0.0000000000000000E+00
(PID.TID 0000.0001) %MON trcstat_ptracer0o_max        =   4.6653650223958882E-04
(PID.TID 0000.0001) %MON trcstat_ptracer0o_min        =   1.2904381896705394E-07
(PID.TID 0000.0001) %MON trcstat_ptracer0o_mean       =   1.6200224513998288E-05
(PID.TID 0000.0001) %MON trcstat_ptracer0o_sd         =   8.0501089329473581E-05
(PID.TID 0000.0001) %MON trcstat_ptracer0o_del2       =   0.0000000000000000E+00
(PID.TID 0000.0001) %MON trcstat_ptracer0p_max        =   4.6533756979426442E-04
(PID.TID 0000.0001) %MON trcstat_ptracer0p_min        =   1.2904381674815717E-07
(PID.TID 0000.0001) %MON trcstat_ptracer0p_mean       =   1.6170029625640983E-05
(PID.TID 0000.0001) %MON trcstat_ptracer0p_sd         =   8.0333814051850171E-05
(PID.TID 0000.0001) %MON trcstat_ptracer0p_del2       =   0.0000000000000000E+00
(PID.TID 0000.0001) %MON trcstat_ptracer0q_max        =   4.6317342730948304E-04
(PID.TID 0000.0001) %MON trcstat_ptracer0q_min        =   1.2826794418334166E-07
(PID.TID 0000.0001) %MON trcstat_ptracer0q_mean       =   1.6091726119437614E-05
(PID.TID 0000.0001) %MON trcstat_ptracer0q_sd         =   7.9941109333106004E-05
(PID.TID 0000.0001) %MON trcstat_ptracer0q_del2       =   0.0000000000000000E+00
(PID.TID 0000.0001) %MON trcstat_ptracer0r_max        =   4.6087693829920459E-04
(PID.TID 0000.0001) %MON trcstat_ptracer0r_min        =   1.2770696444115008E-07
(PID.TID 0000.0001) %MON trcstat_ptracer0r_mean       =   1.6014394635901082E-05
(PID.TID 0000.0001) %MON trcstat_ptracer0r_sd         =   7.9533123252948591E-05
(PID.TID 0000.0001) %MON trcstat_ptracer0r_del2       =   0.0000000000000000E+00
(PID.TID 0000.0001) %MON trcstat_ptracer0s_max        =   4.5927380265734809E-04
(PID.TID 0000.0001) %MON trcstat_ptracer0s_min        =   1.2731182128390899E-07
(PID.TID 0000.0001) %MON trcstat_ptracer0s_mean       =   1.5960312199509703E-05
(PID.TID 0000.0001) %MON trcstat_ptracer0s_sd         =   7.9234735264192054E-05
(PID.TID 0000.0001) %MON trcstat_ptracer0s_del2       =   0.0000000000000000E+00
(PID.TID 0000.0001) %MON trcstat_ptracer0t_max        =   4.5820484297524352E-04
(PID.TID 0000.0001) %MON trcstat_ptracer0t_min        =   1.2703102484889878E-07
(PID.TID 0000.0001) %MON trcstat_ptracer0t_mean       =   1.5923276071317635E-05
(PID.TID 0000.0001) %MON trcstat_ptracer0t_sd         =   7.9011532902898641E-05
(PID.TID 0000.0001) %MON trcstat_ptracer0t_del2       =   0.0000000000000000E+00
(PID.TID 0000.0001) %MON trcstat_ptracer0u_max        =   4.5931717138887146E-04
(PID.TID 0000.0001) %MON trcstat_ptracer0u_min        =   1.2727654486187034E-07
(PID.TID 0000.0001) %MON trcstat_ptracer0u_mean       =   1.5961351765685240E-05
(PID.TID 0000.0001) %MON trcstat_ptracer0u_sd         =   7.9337910009402051E-05
(PID.TID 0000.0001) %MON trcstat_ptracer0u_del2       =   0.0000000000000000E+00
(PID.TID 0000.0001) %MON trcstat_ptracer0v_max        =   4.5931665146394294E-04
(PID.TID 0000.0001) %MON trcstat_ptracer0v_min        =   1.2727654486185986E-07
(PID.TID 0000.0001) %MON trcstat_ptracer0v_mean       =   1.5961336252445553E-05
(PID.TID 0000.0001) %MON trcstat_ptracer0v_sd         =   7.9337826044643579E-05
(PID.TID 0000.0001) %MON trcstat_ptracer0v_del2       =   0.0000000000000000E+00
(PID.TID 0000.0001) %MON trcstat_ptracer0w_max        =   4.5931623450319299E-04
(PID.TID 0000.0001) %MON trcstat_ptracer0w_min        =   1.2727654486185144E-07
(PID.TID 0000.0001) %MON trcstat_ptracer0w_mean       =   1.5961323811362325E-05
(PID.TID 0000.0001) %MON trcstat_ptracer0w_sd         =   7.9337758707766226E-05
(PID.TID 0000.0001) %MON trcstat_ptracer0w_del2       =   0.0000000000000000E+00
(PID.TID 0000.0001) %MON trcstat_ptracer0x_max        =   4.5931590053417150E-04
(PID.TID 0000.0001) %MON trcstat_ptracer0x_min        =   1.2727654486184469E-07
(PID.TID 0000.0001) %MON trcstat_ptracer0x_mean       =   1.5961313846481049E-05
(PID.TID 0000.0001) %MON trcstat_ptracer0x_sd         =   7.9337704773181427E-05
(PID.TID 0000.0001) %MON trcstat_ptracer0x_del2       =   0.0000000000000000E+00
(PID.TID 0000.0001) %MON trcstat_ptracer0y_max        =   4.5931587966940802E-04
(PID.TID 0000.0001) %MON trcstat_ptracer0y_min        =   1.2727654486184443E-07
(PID.TID 0000.0001) %MON trcstat_ptracer0y_mean       =   1.5961313227807713E-05
(PID.TID 0000.0001) %MON trcstat_ptracer0y_sd         =   7.9337701415076807E-05
(PID.TID 0000.0001) %MON trcstat_ptracer0y_del2       =   0.0000000000000000E+00
(PID.TID 0000.0001) %MON trcstat_ptracer0z_max        =   4.5931862865994258E-04
(PID.TID 0000.0001) %MON trcstat_ptracer0z_min        =   1.2727654486190292E-07
(PID.TID 0000.0001) %MON trcstat_ptracer0z_mean       =   1.5961396455496001E-05
(PID.TID 0000.0001) %MON trcstat_ptracer0z_sd         =   7.9338151856424589E-05
(PID.TID 0000.0001) %MON trcstat_ptracer0z_del2       =   0.0000000000000000E+00
(PID.TID 0000.0001) %MON trcstat_ptracer0A_max        =   4.5931788000435470E-04
(PID.TID 0000.0001) %MON trcstat_ptracer0A_min        =   1.2727654486188723E-07
(PID.TID 0000.0001) %MON trcstat_ptracer0A_mean       =   1.5961373845132279E-05
(PID.TID 0000.0001) %MON trcstat_ptracer0A_sd         =   7.9338029470613021E-05
(PID.TID 0000.0001) %MON trcstat_ptracer0A_del2       =   0.0000000000000000E+00
(PID.TID 0000.0001) %MON trcstat_ptracer0B_max        =   4.5931726990015116E-04
(PID.TID 0000.0001) %MON trcstat_ptracer0B_min        =   1.2727654486187447E-07
(PID.TID 0000.0001) %MON trcstat_ptracer0B_mean       =   1.5961355368234370E-05
(PID.TID 0000.0001) %MON trcstat_ptracer0B_sd         =   7.9337929449278246E-05
(PID.TID 0000.0001) %MON trcstat_ptracer0B_del2       =   0.0000000000000000E+00
(PID.TID 0000.0001) %MON trcstat_ptracer0C_max        =   4.5931677092478097E-04
(PID.TID 0000.0001) %MON trcstat_ptracer0C_min        =   1.2727654486186401E-07
(PID.TID 0000.0001) %MON trcstat_ptracer0C_mean       =   1.5961340283539788E-05
(PID.TID 0000.0001) %MON trcstat_ptracer0C_sd         =   7.9337847795584823E-05
(PID.TID 0000.0001) %MON trcstat_ptracer0C_del2       =   0.0000000000000000E+00
(PID.TID 0000.0001) %MON trcstat_ptracer0D_max        =   4.5931618855460962E-04
(PID.TID 0000.0001) %MON trcstat_ptracer0D_min        =   1.2727654486185170E-07
(PID.TID 0000.0001) %MON trcstat_ptracer0D_mean       =   1.5961322744074594E-05
(PID.TID 0000.0001) %MON trcstat_ptracer0D_sd         =   7.9337752881177177E-05
(PID.TID 0000.0001) %MON trcstat_ptracer0D_del2       =   0.0000000000000000E+00
(PID.TID 0000.0001) %MON trcstat_ptracer0E_max        =   4.5931480668248746E-04
(PID.TID 0000.0001) %MON trcstat_ptracer0E_min        =   1.2727654486182259E-07
(PID.TID 0000.0001) %MON trcstat_ptracer0E_mean       =   1.5961281302712608E-05
(PID.TID 0000.0001) %MON trcstat_ptracer0E_sd         =   7.9337528656760867E-05
(PID.TID 0000.0001) %MON trcstat_ptracer0E_del2       =   0.0000000000000000E+00
(PID.TID 0000.0001) %MON trcstat_ptracer0F_max        =   4.5931474096430429E-04
(PID.TID 0000.0001) %MON trcstat_ptracer0F_min        =   1.2727654486182129E-07
(PID.TID 0000.0001) %MON trcstat_ptracer0F_mean       =   1.5961279309389987E-05
(PID.TID 0000.0001) %MON trcstat_ptracer0F_sd         =   7.9337517859349237E-05
(PID.TID 0000.0001) %MON trcstat_ptracer0F_del2       =   0.0000000000000000E+00
(PID.TID 0000.0001) %MON trcstat_ptracer0G_max        =   4.5931468677395834E-04
(PID.TID 0000.0001) %MON trcstat_ptracer0G_min        =   1.2727654486182021E-07
(PID.TID 0000.0001) %MON trcstat_ptracer0G_mean       =   1.5961277669591945E-05
(PID.TID 0000.0001) %MON trcstat_ptracer0G_sd         =   7.9337508977436657E-05
(PID.TID 0000.0001) %MON trcstat_ptracer0G_del2       =   0.0000000000000000E+00
(PID.TID 0000.0001) %MON trcstat_ptracer0H_max        =   4.5931464204518178E-04
(PID.TID 0000.0001) %MON trcstat_ptracer0H_min        =   1.2727654486181931E-07
(PID.TID 0000.0001) %MON trcstat_ptracer0H_mean       =   1.5961276318802625E-05
(PID.TID 0000.0001) %MON trcstat_ptracer0H_sd         =   7.9337501661223565E-05
(PID.TID 0000.0001) %MON trcstat_ptracer0H_del2       =   0.0000000000000000E+00
(PID.TID 0000.0001) %MON trcstat_ptracer0I_max        =   5.8475959166281075E-07
(PID.TID 0000.0001) %MON trcstat_ptracer0I_min        =   1.6358589043564836E-10
(PID.TID 0000.0001) %MON trcstat_ptracer0I_mean       =   1.8172452777460613E-08
(PID.TID 0000.0001) %MON trcstat_ptracer0I_sd         =   8.9375662483411322E-08
(PID.TID 0000.0001) %MON trcstat_ptracer0I_del2       =   0.0000000000000000E+00
(PID.TID 0000.0001) %MON trcstat_ptracer0J_max        =   5.4414667307875227E-07
(PID.TID 0000.0001) %MON trcstat_ptracer0J_min        =   1.5217378180746278E-10
(PID.TID 0000.0001) %MON trcstat_ptracer0J_mean       =   1.7390443416974753E-08
(PID.TID 0000.0001) %MON trcstat_ptracer0J_sd         =   8.5649222440551642E-08
(PID.TID 0000.0001) %MON trcstat_ptracer0J_del2       =   0.0000000000000000E+00
(PID.TID 0000.0001) %MON trcstat_ptracer0K_max        =   5.1524451931957651E-07
(PID.TID 0000.0001) %MON trcstat_ptracer0K_min        =   1.4398229771305823E-10
(PID.TID 0000.0001) %MON trcstat_ptracer0K_mean       =   1.6859273816674330E-08
(PID.TID 0000.0001) %MON trcstat_ptracer0K_sd         =   8.3185104327878030E-08
(PID.TID 0000.0001) %MON trcstat_ptracer0K_del2       =   0.0000000000000000E+00
(PID.TID 0000.0001) %MON trcstat_ptracer0L_max        =   4.9500508074779354E-07
(PID.TID 0000.0001) %MON trcstat_ptracer0L_min        =   1.3817643942017578E-10
(PID.TID 0000.0001) %MON trcstat_ptracer0L_mean       =   1.6501810906615822E-08
(PID.TID 0000.0001) %MON trcstat_ptracer0L_sd         =   8.1569724097308270E-08
(PID.TID 0000.0001) %MON trcstat_ptracer0L_del2       =   0.0000000000000000E+00
(PID.TID 0000.0001) %MON trcstat_ptracer0M_max        =   1.8413944935858446E-07
(PID.TID 0000.0001) %MON trcstat_ptracer0M_min        =   5.1095589014036754E-11
(PID.TID 0000.0001) %MON trcstat_ptracer0M_mean       =   6.3693481374854645E-09
(PID.TID 0000.0001) %MON trcstat_ptracer0M_sd         =   3.1634178225032197E-08
(PID.TID 0000.0001) %MON trcstat_ptracer0M_del2       =   0.0000000000000000E+00
(PID.TID 0000.0001) %MON trcstat_ptracer0N_max        =   4.8111550201944105E-07
(PID.TID 0000.0001) %MON trcstat_ptracer0N_min        =   1.3412868072319467E-10
(PID.TID 0000.0001) %MON trcstat_ptracer0N_mean       =   1.6264281664778634E-08
(PID.TID 0000.0001) %MON trcstat_ptracer0N_sd         =   8.0521662141522453E-08
(PID.TID 0000.0001) %MON trcstat_ptracer0N_del2       =   0.0000000000000000E+00
(PID.TID 0000.0001) %MON trcstat_ptracer0O_max        =   4.7190163188306538E-07
(PID.TID 0000.0001) %MON trcstat_ptracer0O_min        =   1.3136477526393244E-10
(PID.TID 0000.0001) %MON trcstat_ptracer0O_mean       =   1.6110362374908826E-08
(PID.TID 0000.0001) %MON trcstat_ptracer0O_sd         =   7.9857322611925336E-08
(PID.TID 0000.0001) %MON trcstat_ptracer0O_del2       =   0.0000000000000000E+00
(PID.TID 0000.0001) %MON trcstat_ptracer0P_max        =   1.8353118121215581E-07
(PID.TID 0000.0001) %MON trcstat_ptracer0P_min        =   5.0915620104350542E-11
(PID.TID 0000.0001) %MON trcstat_ptracer0P_mean       =   6.3591619705647808E-09
(PID.TID 0000.0001) %MON trcstat_ptracer0P_sd         =   3.1589879402965653E-08
(PID.TID 0000.0001) %MON trcstat_ptracer0P_del2       =   0.0000000000000000E+00
(PID.TID 0000.0001) %MON trcstat_ptracer0Q_max        =   4.7180683716592666E-07
(PID.TID 0000.0001) %MON trcstat_ptracer0Q_min        =   1.3136477496097801E-10
(PID.TID 0000.0001) %MON trcstat_ptracer0Q_mean       =   1.6108868110659550E-08
(PID.TID 0000.0001) %MON trcstat_ptracer0Q_sd         =   7.9849392926331413E-08
(PID.TID 0000.0001) %MON trcstat_ptracer0Q_del2       =   0.0000000000000000E+00
(PID.TID 0000.0001) %MON trcstat_ptracer0R_max        =   4.6580847427753578E-07
(PID.TID 0000.0001) %MON trcstat_ptracer0R_min        =   1.2952403056429263E-10
(PID.TID 0000.0001) %MON trcstat_ptracer0R_mean       =   1.6010463208317557E-08
(PID.TID 0000.0001) %MON trcstat_ptracer0R_sd         =   7.9431040111003143E-08
(PID.TID 0000.0001) %MON trcstat_ptracer0R_del2       =   0.0000000000000000E+00
(PID.TID 0000.0001) %MON trcstat_ptracer0S_max        =   1.8313795355428218E-07
(PID.TID 0000.0001) %MON trcstat_ptracer0S_min        =   5.0795770666839822E-11
(PID.TID 0000.0001) %MON trcstat_ptracer0S_mean       =   6.3527317800037710E-09
(PID.TID 0000.0001) %MON trcstat_ptracer0S_sd         =   3.1561584126115756E-08
(PID.TID 0000.0001) %MON trcstat_ptracer0S_del2       =   0.0000000000000000E+00
(PID.TID 0000.0001) %MON trcstat_ptracer0T_max        =   4.6575144230590085E-07
(PID.TID 0000.0001) %MON trcstat_ptracer0T_min        =   1.2952403033543603E-10
(PID.TID 0000.0001) %MON trcstat_ptracer0T_mean       =   1.6009618911626105E-08
(PID.TID 0000.0001) %MON trcstat_ptracer0T_sd         =   7.9426589604475777E-08
(PID.TID 0000.0001) %MON trcstat_ptracer0T_del2       =   0.0000000000000000E+00
(PID.TID 0000.0001) %MON trcstat_ptracer0U_max        =   4.6195643983854694E-07
(PID.TID 0000.0001) %MON trcstat_ptracer0U_min        =   1.2833210478689171E-10
(PID.TID 0000.0001) %MON trcstat_ptracer0U_mean       =   1.5948033619060811E-08
(PID.TID 0000.0001) %MON trcstat_ptracer0U_sd         =   7.9166228077806318E-08
(PID.TID 0000.0001) %MON trcstat_ptracer0U_del2       =   0.0000000000000000E+00
(PID.TID 0000.0001) %MON trcstat_ptracer0V_max        =   1.8288956624990294E-07
(PID.TID 0000.0001) %MON trcstat_ptracer0V_min        =   5.0718184770698625E-11
(PID.TID 0000.0001) %MON trcstat_ptracer0V_mean       =   6.3487186073187583E-09
(PID.TID 0000.0001) %MON trcstat_ptracer0V_sd         =   3.1543002726866415E-08
(PID.TID 0000.0001) %MON trcstat_ptracer0V_del2       =   0.0000000000000000E+00
(PID.TID 0000.0001) %MON trcstat_ptracer0W_max        =   4.6192310726373429E-07
(PID.TID 0000.0001) %MON trcstat_ptracer0W_min        =   1.2833210461370919E-10
(PID.TID 0000.0001) %MON trcstat_ptracer0W_mean       =   1.5947572200339350E-08
(PID.TID 0000.0001) %MON trcstat_ptracer0W_sd         =   7.9163813493147866E-08
(PID.TID 0000.0001) %MON trcstat_ptracer0W_del2       =   0.0000000000000000E+00
(PID.TID 0000.0001) %MON trcstat_ptracer0X_max        =   4.5959262600595692E-07
(PID.TID 0000.0001) %MON trcstat_ptracer0X_min        =   1.2758293548379032E-10
(PID.TID 0000.0001) %MON trcstat_ptracer0X_mean       =   1.5909974831175743E-08
(PID.TID 0000.0001) %MON trcstat_ptracer0X_sd         =   7.9003018297994299E-08
(PID.TID 0000.0001) %MON trcstat_ptracer0X_del2       =   0.0000000000000000E+00
(PID.TID 0000.0001) %MON trcstat_ptracer0Y_max        =   1.8273733299202441E-07
(PID.TID 0000.0001) %MON trcstat_ptracer0Y_min        =   5.0669464009658063E-11
(PID.TID 0000.0001) %MON trcstat_ptracer0Y_mean       =   6.3462766350002756E-09
(PID.TID 0000.0001) %MON trcstat_ptracer0Y_sd         =   3.1530190095871609E-08
(PID.TID 0000.0001) %MON trcstat_ptracer0Y_del2       =   0.0000000000000000E+00
(PID.TID 0000.0001) %MON trcstat_ptracer0Z_max        =   4.5957363208664938E-07
(PID.TID 0000.0001) %MON trcstat_ptracer0Z_min        =   1.2758293535284230E-10
(PID.TID 0000.0001) %MON trcstat_ptracer0Z_mean       =   1.5909725728465467E-08
(PID.TID 0000.0001) %MON trcstat_ptracer0Z_sd         =   7.9001723359817461E-08
(PID.TID 0000.0001) %MON trcstat_ptracer0Z_del2       =   0.0000000000000000E+00
(PID.TID 0000.0001) %MON trcstat_ptracer1a_max        =   4.5818266326622935E-07
(PID.TID 0000.0001) %MON trcstat_ptracer1a_min        =   1.2712590523147648E-10
(PID.TID 0000.0001) %MON trcstat_ptracer1a_mean       =   1.5887339714549448E-08
(PID.TID 0000.0001) %MON trcstat_ptracer1a_sd         =   7.8901330283093253E-08
(PID.TID 0000.0001) %MON trcstat_ptracer1a_del2       =   0.0000000000000000E+00
(PID.TID 0000.0001) %MON trcstat_ptracer1b_max        =   4.5817208714854976E-07
(PID.TID 0000.0001) %MON trcstat_ptracer1b_min        =   1.2712590513266634E-10
(PID.TID 0000.0001) %MON trcstat_ptracer1b_mean       =   1.5887206892297188E-08
(PID.TID 0000.0001) %MON trcstat_ptracer1b_sd         =   7.8900643901006987E-08
(PID.TID 0000.0001) %MON trcstat_ptracer1b_del2       =   0.0000000000000000E+00
(PID.TID 0000.0001) %MON trcstat_ptracer1c_max        =   4.5736544874163079E-07
(PID.TID 0000.0001) %MON trcstat_ptracer1c_min        =   1.2685522414181466E-10
(PID.TID 0000.0001) %MON trcstat_ptracer1c_mean       =   1.5874263511487199E-08
(PID.TID 0000.0001) %MON trcstat_ptracer1c_sd         =   7.8835033143261493E-08
(PID.TID 0000.0001) %MON trcstat_ptracer1c_del2       =   0.0000000000000000E+00
(PID.TID 0000.0001) %MON trcstat_ptracer1d_max        =   4.5689789633326163E-07
(PID.TID 0000.0001) %MON trcstat_ptracer1d_min        =   1.2670028184836467E-10
(PID.TID 0000.0001) %MON trcstat_ptracer1d_mean       =   1.5866736077936502E-08
(PID.TID 0000.0001) %MON trcstat_ptracer1d_sd         =   7.8785531175636524E-08
(PID.TID 0000.0001) %MON trcstat_ptracer1d_del2       =   0.0000000000000000E+00
(PID.TID 0000.0001) %MON trcstat_ptracer1e_max        =   4.5663654325611470E-07
(PID.TID 0000.0001) %MON trcstat_ptracer1e_min        =   1.2661249231156001E-10
(PID.TID 0000.0001) %MON trcstat_ptracer1e_mean       =   1.5862516191849210E-08
(PID.TID 0000.0001) %MON trcstat_ptracer1e_sd         =   7.8741609722235681E-08
(PID.TID 0000.0001) %MON trcstat_ptracer1e_del2       =   0.0000000000000000E+00
(PID.TID 0000.0001) %MON trcstat_ptracer1f_max        =   4.5649272579040786E-07
(PID.TID 0000.0001) %MON trcstat_ptracer1f_min        =   1.2656251539043350E-10
(PID.TID 0000.0001) %MON trcstat_ptracer1f_mean       =   1.5860185398083976E-08
(PID.TID 0000.0001) %MON trcstat_ptracer1f_sd         =   7.8694572116895457E-08
(PID.TID 0000.0001) %MON trcstat_ptracer1f_del2       =   0.0000000000000000E+00
(PID.TID 0000.0001) %MON trcstat_ptracer1g_max        =   4.5932617109602326E-07
(PID.TID 0000.0001) %MON trcstat_ptracer1g_min        =   1.2727654486205506E-10
(PID.TID 0000.0001) %MON trcstat_ptracer1g_mean       =   1.5961606113644860E-08
(PID.TID 0000.0001) %MON trcstat_ptracer1g_sd         =   7.9339283393532395E-08
(PID.TID 0000.0001) %MON trcstat_ptracer1g_del2       =   0.0000000000000000E+00
(PID.TID 0000.0001) %MON trcstat_ptracer1h_max        =   4.5932389510455580E-07
(PID.TID 0000.0001) %MON trcstat_ptracer1h_min        =   1.2727654486200822E-10
(PID.TID 0000.0001) %MON trcstat_ptracer1h_mean       =   1.5961544516526380E-08
(PID.TID 0000.0001) %MON trcstat_ptracer1h_sd         =   7.9338951332905496E-08
(PID.TID 0000.0001) %MON trcstat_ptracer1h_del2       =   0.0000000000000000E+00
(PID.TID 0000.0001) %MON trcstat_ptracer1i_max        =   4.5932212014180663E-07
(PID.TID 0000.0001) %MON trcstat_ptracer1i_min        =   1.2727654486197175E-10
(PID.TID 0000.0001) %MON trcstat_ptracer1i_mean       =   1.5961495199003531E-08
(PID.TID 0000.0001) %MON trcstat_ptracer1i_sd         =   7.9338685216796616E-08
(PID.TID 0000.0001) %MON trcstat_ptracer1i_del2       =   0.0000000000000000E+00
(PID.TID 0000.0001) %MON trcstat_ptracer1j_max        =   4.5932071492433154E-07
(PID.TID 0000.0001) %MON trcstat_ptracer1j_min        =   1.2727654486194285E-10
(PID.TID 0000.0001) %MON trcstat_ptracer1j_mean       =   1.5961455299719034E-08
(PID.TID 0000.0001) %MON trcstat_ptracer1j_sd         =   7.9338469748924879E-08
(PID.TID 0000.0001) %MON trcstat_ptracer1j_del2       =   0.0000000000000000E+00
(PID.TID 0000.0001) %MON trcstat_ptracer1k_max        =   4.5932232084641468E-07
(PID.TID 0000.0001) %MON trcstat_ptracer1k_min        =   1.2727654486197555E-10
(PID.TID 0000.0001) %MON trcstat_ptracer1k_mean       =   1.5961504140093017E-08
(PID.TID 0000.0001) %MON trcstat_ptracer1k_sd         =   7.9338734266786468E-08
(PID.TID 0000.0001) %MON trcstat_ptracer1k_del2       =   0.0000000000000000E+00
(PID.TID 0000.0001) %MON trcstat_ptracer1l_max        =   4.5933506118439326E-07
(PID.TID 0000.0001) %MON trcstat_ptracer1l_min        =   1.2727654486224831E-10
(PID.TID 0000.0001) %MON trcstat_ptracer1l_mean       =   1.5961888823672644E-08
(PID.TID 0000.0001) %MON trcstat_ptracer1l_sd         =   7.9340815774271281E-08
(PID.TID 0000.0001) %MON trcstat_ptracer1l_del2       =   0.0000000000000000E+00
(PID.TID 0000.0001) %MON trcstat_ptracer1m_max        =   4.5933145752719570E-07
(PID.TID 0000.0001) %MON trcstat_ptracer1m_min        =   1.2727654486217221E-10
(PID.TID 0000.0001) %MON trcstat_ptracer1m_mean       =   1.5961781344872840E-08
(PID.TID 0000.0001) %MON trcstat_ptracer1m_sd         =   7.9340234420532770E-08
(PID.TID 0000.0001) %MON trcstat_ptracer1m_del2       =   0.0000000000000000E+00
(PID.TID 0000.0001) %MON trcstat_ptracer1n_max        =   4.5932849905523997E-07
(PID.TID 0000.0001) %MON trcstat_ptracer1n_min        =   1.2727654486210991E-10
(PID.TID 0000.0001) %MON trcstat_ptracer1n_mean       =   1.5961692422408616E-08
(PID.TID 0000.0001) %MON trcstat_ptracer1n_sd         =   7.9339753274974872E-08
(PID.TID 0000.0001) %MON trcstat_ptracer1n_del2       =   0.0000000000000000E+00
(PID.TID 0000.0001) %MON trcstat_ptracer1o_max        =   4.5932606282634341E-07
(PID.TID 0000.0001) %MON trcstat_ptracer1o_min        =   1.2727654486205873E-10
(PID.TID 0000.0001) %MON trcstat_ptracer1o_mean       =   1.5961619091571688E-08
(PID.TID 0000.0001) %MON trcstat_ptracer1o_sd         =   7.9339356447324824E-08
(PID.TID 0000.0001) %MON trcstat_ptracer1o_del2       =   0.0000000000000000E+00
(PID.TID 0000.0001) %MON trcstat_ptracer1p_max        =   4.5932209645780960E-07
(PID.TID 0000.0001) %MON trcstat_ptracer1p_min        =   1.2727654486197503E-10
(PID.TID 0000.0001) %MON trcstat_ptracer1p_mean       =   1.5961499915483420E-08
(PID.TID 0000.0001) %MON trcstat_ptracer1p_sd         =   7.9338711590672434E-08
(PID.TID 0000.0001) %MON trcstat_ptracer1p_del2       =   0.0000000000000000E+00
(PID.TID 0000.0001) %MON trcstat_ptracer1q_max        =   4.5931607910731259E-07
(PID.TID 0000.0001) %MON trcstat_ptracer1q_min        =   1.2727654486184811E-10
(PID.TID 0000.0001) %MON trcstat_ptracer1q_mean       =   1.5961319557478813E-08
(PID.TID 0000.0001) %MON trcstat_ptracer1q_sd         =   7.9337735779322057E-08
(PID.TID 0000.0001) %MON trcstat_ptracer1q_del2       =   0.0000000000000000E+00
(PID.TID 0000.0001) %MON trcstat_ptracer1r_max        =   4.5931579411853676E-07
(PID.TID 0000.0001) %MON trcstat_ptracer1r_min        =   1.2727654486184240E-10
(PID.TID 0000.0001) %MON trcstat_ptracer1r_mean       =   1.5961310921896653E-08
(PID.TID 0000.0001) %MON trcstat_ptracer1r_sd         =   7.9337689005560999E-08
(PID.TID 0000.0001) %MON trcstat_ptracer1r_del2       =   0.0000000000000000E+00
(PID.TID 0000.0001) %MON trcstat_ptracer1s_max        =   4.5931555840886449E-07
(PID.TID 0000.0001) %MON trcstat_ptracer1s_min        =   1.2727654486183772E-10
(PID.TID 0000.0001) %MON trcstat_ptracer1s_mean       =   1.5961303793061405E-08
(PID.TID 0000.0001) %MON trcstat_ptracer1s_sd         =   7.9337650393994245E-08
(PID.TID 0000.0001) %MON trcstat_ptracer1s_del2       =   0.0000000000000000E+00
(PID.TID 0000.0001) %MON trcstat_ptracer1t_max        =   4.5931536340570345E-07
(PID.TID 0000.0001) %MON trcstat_ptracer1t_min        =   1.2727654486183376E-10
(PID.TID 0000.0001) %MON trcstat_ptracer1t_mean       =   1.5961297905641376E-08
(PID.TID 0000.0001) %MON trcstat_ptracer1t_sd         =   7.9337618506921832E-08
(PID.TID 0000.0001) %MON trcstat_ptracer1t_del2       =   0.0000000000000000E+00
(PID.TID 0000.0001) %MON trcstat_ptracer1u_max        =   0.0000000000000000E+00
(PID.TID 0000.0001) %MON trcstat_ptracer1u_min        =   0.0000000000000000E+00
(PID.TID 0000.0001) %MON trcstat_ptracer1u_mean       =   0.0000000000000000E+00
(PID.TID 0000.0001) %MON trcstat_ptracer1u_sd         =   0.0000000000000000E+00
(PID.TID 0000.0001) %MON trcstat_ptracer1u_del2       =   0.0000000000000000E+00
(PID.TID 0000.0001) %MON trcstat_ptracer1v_max        =   0.0000000000000000E+00
(PID.TID 0000.0001) %MON trcstat_ptracer1v_min        =   0.0000000000000000E+00
(PID.TID 0000.0001) %MON trcstat_ptracer1v_mean       =   0.0000000000000000E+00
(PID.TID 0000.0001) %MON trcstat_ptracer1v_sd         =   0.0000000000000000E+00
(PID.TID 0000.0001) %MON trcstat_ptracer1v_del2       =   0.0000000000000000E+00
(PID.TID 0000.0001) %MON trcstat_ptracer1w_max        =   0.0000000000000000E+00
(PID.TID 0000.0001) %MON trcstat_ptracer1w_min        =   0.0000000000000000E+00
(PID.TID 0000.0001) %MON trcstat_ptracer1w_mean       =   0.0000000000000000E+00
(PID.TID 0000.0001) %MON trcstat_ptracer1w_sd         =   0.0000000000000000E+00
(PID.TID 0000.0001) %MON trcstat_ptracer1w_del2       =   0.0000000000000000E+00
(PID.TID 0000.0001) %MON trcstat_ptracer1x_max        =   0.0000000000000000E+00
(PID.TID 0000.0001) %MON trcstat_ptracer1x_min        =   0.0000000000000000E+00
(PID.TID 0000.0001) %MON trcstat_ptracer1x_mean       =   0.0000000000000000E+00
(PID.TID 0000.0001) %MON trcstat_ptracer1x_sd         =   0.0000000000000000E+00
(PID.TID 0000.0001) %MON trcstat_ptracer1x_del2       =   0.0000000000000000E+00
(PID.TID 0000.0001) %MON trcstat_ptracer1y_max        =   0.0000000000000000E+00
(PID.TID 0000.0001) %MON trcstat_ptracer1y_min        =   0.0000000000000000E+00
(PID.TID 0000.0001) %MON trcstat_ptracer1y_mean       =   0.0000000000000000E+00
(PID.TID 0000.0001) %MON trcstat_ptracer1y_sd         =   0.0000000000000000E+00
(PID.TID 0000.0001) %MON trcstat_ptracer1y_del2       =   0.0000000000000000E+00
(PID.TID 0000.0001) %MON trcstat_ptracer1z_max        =   0.0000000000000000E+00
(PID.TID 0000.0001) %MON trcstat_ptracer1z_min        =   0.0000000000000000E+00
(PID.TID 0000.0001) %MON trcstat_ptracer1z_mean       =   0.0000000000000000E+00
(PID.TID 0000.0001) %MON trcstat_ptracer1z_sd         =   0.0000000000000000E+00
(PID.TID 0000.0001) %MON trcstat_ptracer1z_del2       =   0.0000000000000000E+00
(PID.TID 0000.0001) %MON trcstat_ptracer1A_max        =   7.3012388906497205E-03
(PID.TID 0000.0001) %MON trcstat_ptracer1A_min        =   2.0239447717736931E-06
(PID.TID 0000.0001) %MON trcstat_ptracer1A_mean       =   2.5371014891604300E-04
(PID.TID 0000.0001) %MON trcstat_ptracer1A_sd         =   1.2608973217908071E-03
(PID.TID 0000.0001) %MON trcstat_ptracer1A_del2       =   0.0000000000000000E+00
(PID.TID 0000.0001) %MON trcstat_ptracer1B_max        =   0.0000000000000000E+00
(PID.TID 0000.0001) %MON trcstat_ptracer1B_min        =   0.0000000000000000E+00
(PID.TID 0000.0001) %MON trcstat_ptracer1B_mean       =   0.0000000000000000E+00
(PID.TID 0000.0001) %MON trcstat_ptracer1B_sd         =   0.0000000000000000E+00
(PID.TID 0000.0001) %MON trcstat_ptracer1B_del2       =   0.0000000000000000E+00
(PID.TID 0000.0001) %MON trcstat_ptracer1C_max        =   0.0000000000000000E+00
(PID.TID 0000.0001) %MON trcstat_ptracer1C_min        =   0.0000000000000000E+00
(PID.TID 0000.0001) %MON trcstat_ptracer1C_mean       =   0.0000000000000000E+00
(PID.TID 0000.0001) %MON trcstat_ptracer1C_sd         =   0.0000000000000000E+00
(PID.TID 0000.0001) %MON trcstat_ptracer1C_del2       =   0.0000000000000000E+00
(PID.TID 0000.0001) %MON trcstat_ptracer1D_max        =   7.3012902088032561E-03
(PID.TID 0000.0001) %MON trcstat_ptracer1D_min        =   2.0239453930387552E-06
(PID.TID 0000.0001) %MON trcstat_ptracer1D_mean       =   2.5371170398623232E-04
(PID.TID 0000.0001) %MON trcstat_ptracer1D_sd         =   1.2608463303331592E-03
(PID.TID 0000.0001) %MON trcstat_ptracer1D_del2       =   0.0000000000000000E+00
(PID.TID 0000.0001) %MON trcstat_ptracer1E_max        =   0.0000000000000000E+00
(PID.TID 0000.0001) %MON trcstat_ptracer1E_min        =   0.0000000000000000E+00
(PID.TID 0000.0001) %MON trcstat_ptracer1E_mean       =   0.0000000000000000E+00
(PID.TID 0000.0001) %MON trcstat_ptracer1E_sd         =   0.0000000000000000E+00
(PID.TID 0000.0001) %MON trcstat_ptracer1E_del2       =   0.0000000000000000E+00
(PID.TID 0000.0001) %MON trcstat_ptracer1F_max        =   0.0000000000000000E+00
(PID.TID 0000.0001) %MON trcstat_ptracer1F_min        =   0.0000000000000000E+00
(PID.TID 0000.0001) %MON trcstat_ptracer1F_mean       =   0.0000000000000000E+00
(PID.TID 0000.0001) %MON trcstat_ptracer1F_sd         =   0.0000000000000000E+00
(PID.TID 0000.0001) %MON trcstat_ptracer1F_del2       =   0.0000000000000000E+00
(PID.TID 0000.0001) %MON trcstat_ptracer1G_max        =   7.3013326281010493E-03
(PID.TID 0000.0001) %MON trcstat_ptracer1G_min        =   2.0239467246907163E-06
(PID.TID 0000.0001) %MON trcstat_ptracer1G_mean       =   2.5371299772639576E-04
(PID.TID 0000.0001) %MON trcstat_ptracer1G_sd         =   1.2607703779599503E-03
(PID.TID 0000.0001) %MON trcstat_ptracer1G_del2       =   0.0000000000000000E+00
(PID.TID 0000.0001) %MON trcstat_ptracer1H_max        =   0.0000000000000000E+00
(PID.TID 0000.0001) %MON trcstat_ptracer1H_min        =   0.0000000000000000E+00
(PID.TID 0000.0001) %MON trcstat_ptracer1H_mean       =   0.0000000000000000E+00
(PID.TID 0000.0001) %MON trcstat_ptracer1H_sd         =   0.0000000000000000E+00
(PID.TID 0000.0001) %MON trcstat_ptracer1H_del2       =   0.0000000000000000E+00
(PID.TID 0000.0001) %MON trcstat_ptracer1I_max        =   0.0000000000000000E+00
(PID.TID 0000.0001) %MON trcstat_ptracer1I_min        =   0.0000000000000000E+00
(PID.TID 0000.0001) %MON trcstat_ptracer1I_mean       =   0.0000000000000000E+00
(PID.TID 0000.0001) %MON trcstat_ptracer1I_sd         =   0.0000000000000000E+00
(PID.TID 0000.0001) %MON trcstat_ptracer1I_del2       =   0.0000000000000000E+00
(PID.TID 0000.0001) %MON trcstat_ptracer1J_max        =   7.3013676493387022E-03
(PID.TID 0000.0001) %MON trcstat_ptracer1J_min        =   2.0239497038081408E-06
(PID.TID 0000.0001) %MON trcstat_ptracer1J_mean       =   2.5371407029478729E-04
(PID.TID 0000.0001) %MON trcstat_ptracer1J_sd         =   1.2606603849822928E-03
(PID.TID 0000.0001) %MON trcstat_ptracer1J_del2       =   0.0000000000000000E+00
(PID.TID 0000.0001) %MON trcstat_ptracer1K_max        =   0.0000000000000000E+00
(PID.TID 0000.0001) %MON trcstat_ptracer1K_min        =   0.0000000000000000E+00
(PID.TID 0000.0001) %MON trcstat_ptracer1K_mean       =   0.0000000000000000E+00
(PID.TID 0000.0001) %MON trcstat_ptracer1K_sd         =   0.0000000000000000E+00
(PID.TID 0000.0001) %MON trcstat_ptracer1K_del2       =   0.0000000000000000E+00
(PID.TID 0000.0001) %MON trcstat_ptracer1L_max        =   0.0000000000000000E+00
(PID.TID 0000.0001) %MON trcstat_ptracer1L_min        =   0.0000000000000000E+00
(PID.TID 0000.0001) %MON trcstat_ptracer1L_mean       =   0.0000000000000000E+00
(PID.TID 0000.0001) %MON trcstat_ptracer1L_sd         =   0.0000000000000000E+00
(PID.TID 0000.0001) %MON trcstat_ptracer1L_del2       =   0.0000000000000000E+00
(PID.TID 0000.0001) %MON trcstat_ptracer1M_max        =   7.3014026773700171E-03
(PID.TID 0000.0001) %MON trcstat_ptracer1M_min        =   2.0239566323079281E-06
(PID.TID 0000.0001) %MON trcstat_ptracer1M_mean       =   2.5371514579316715E-04
(PID.TID 0000.0001) %MON trcstat_ptracer1M_sd         =   1.2605046325551601E-03
(PID.TID 0000.0001) %MON trcstat_ptracer1M_del2       =   0.0000000000000000E+00
(PID.TID 0000.0001) %MON trcstat_ptracer1N_max        =   0.0000000000000000E+00
(PID.TID 0000.0001) %MON trcstat_ptracer1N_min        =   0.0000000000000000E+00
(PID.TID 0000.0001) %MON trcstat_ptracer1N_mean       =   0.0000000000000000E+00
(PID.TID 0000.0001) %MON trcstat_ptracer1N_sd         =   0.0000000000000000E+00
(PID.TID 0000.0001) %MON trcstat_ptracer1N_del2       =   0.0000000000000000E+00
(PID.TID 0000.0001) %MON trcstat_ptracer1O_max        =   7.3014785143800014E-03
(PID.TID 0000.0001) %MON trcstat_ptracer1O_min        =   2.0239733022864182E-06
(PID.TID 0000.0001) %MON trcstat_ptracer1O_mean       =   2.5371744547770430E-04
(PID.TID 0000.0001) %MON trcstat_ptracer1O_sd         =   1.2602917706693250E-03
(PID.TID 0000.0001) %MON trcstat_ptracer1O_del2       =   0.0000000000000000E+00
(PID.TID 0000.0001) %MON trcstat_ptracer1P_max        =   7.3014878512954306E-03
(PID.TID 0000.0001) %MON trcstat_ptracer1P_min        =   2.0240145763505094E-06
(PID.TID 0000.0001) %MON trcstat_ptracer1P_mean       =   2.5371776821050713E-04
(PID.TID 0000.0001) %MON trcstat_ptracer1P_sd         =   1.2599796401222346E-03
(PID.TID 0000.0001) %MON trcstat_ptracer1P_del2       =   0.0000000000000000E+00
(PID.TID 0000.0001) %MON trcstat_ptracer1Q_max        =   7.3014952279487856E-03
(PID.TID 0000.0001) %MON trcstat_ptracer1Q_min        =   2.0240402070840357E-06
(PID.TID 0000.0001) %MON trcstat_ptracer1Q_mean       =   2.5371804668839816E-04
(PID.TID 0000.0001) %MON trcstat_ptracer1Q_sd         =   1.2595443997975664E-03
(PID.TID 0000.0001) %MON trcstat_ptracer1Q_del2       =   0.0000000000000000E+00
(PID.TID 0000.0001) %MON trcstat_ptracer1R_max        =   7.3015008424130246E-03
(PID.TID 0000.0001) %MON trcstat_ptracer1R_min        =   2.0240401385793474E-06
(PID.TID 0000.0001) %MON trcstat_ptracer1R_mean       =   2.5371829343551737E-04
(PID.TID 0000.0001) %MON trcstat_ptracer1R_sd         =   1.2589390683111269E-03
(PID.TID 0000.0001) %MON trcstat_ptracer1R_del2       =   0.0000000000000000E+00
(PID.TID 0000.0001) %MON trcstat_ptracer1S_max        =   0.0000000000000000E+00
(PID.TID 0000.0001) %MON trcstat_ptracer1S_min        =   0.0000000000000000E+00
(PID.TID 0000.0001) %MON trcstat_ptracer1S_mean       =   0.0000000000000000E+00
(PID.TID 0000.0001) %MON trcstat_ptracer1S_sd         =   0.0000000000000000E+00
(PID.TID 0000.0001) %MON trcstat_ptracer1S_del2       =   0.0000000000000000E+00
(PID.TID 0000.0001) %MON trcstat_ptracer1T_max        =   0.0000000000000000E+00
(PID.TID 0000.0001) %MON trcstat_ptracer1T_min        =   0.0000000000000000E+00
(PID.TID 0000.0001) %MON trcstat_ptracer1T_mean       =   0.0000000000000000E+00
(PID.TID 0000.0001) %MON trcstat_ptracer1T_sd         =   0.0000000000000000E+00
(PID.TID 0000.0001) %MON trcstat_ptracer1T_del2       =   0.0000000000000000E+00
(PID.TID 0000.0001) %MON trcstat_ptracer1U_max        =   0.0000000000000000E+00
(PID.TID 0000.0001) %MON trcstat_ptracer1U_min        =   0.0000000000000000E+00
(PID.TID 0000.0001) %MON trcstat_ptracer1U_mean       =   0.0000000000000000E+00
(PID.TID 0000.0001) %MON trcstat_ptracer1U_sd         =   0.0000000000000000E+00
(PID.TID 0000.0001) %MON trcstat_ptracer1U_del2       =   0.0000000000000000E+00
(PID.TID 0000.0001) %MON trcstat_ptracer1V_max        =   0.0000000000000000E+00
(PID.TID 0000.0001) %MON trcstat_ptracer1V_min        =   0.0000000000000000E+00
(PID.TID 0000.0001) %MON trcstat_ptracer1V_mean       =   0.0000000000000000E+00
(PID.TID 0000.0001) %MON trcstat_ptracer1V_sd         =   0.0000000000000000E+00
(PID.TID 0000.0001) %MON trcstat_ptracer1V_del2       =   0.0000000000000000E+00
(PID.TID 0000.0001) %MON trcstat_ptracer1W_max        =   0.0000000000000000E+00
(PID.TID 0000.0001) %MON trcstat_ptracer1W_min        =   0.0000000000000000E+00
(PID.TID 0000.0001) %MON trcstat_ptracer1W_mean       =   0.0000000000000000E+00
(PID.TID 0000.0001) %MON trcstat_ptracer1W_sd         =   0.0000000000000000E+00
(PID.TID 0000.0001) %MON trcstat_ptracer1W_del2       =   0.0000000000000000E+00
(PID.TID 0000.0001) %MON trcstat_ptracer1X_max        =   0.0000000000000000E+00
(PID.TID 0000.0001) %MON trcstat_ptracer1X_min        =   0.0000000000000000E+00
(PID.TID 0000.0001) %MON trcstat_ptracer1X_mean       =   0.0000000000000000E+00
(PID.TID 0000.0001) %MON trcstat_ptracer1X_sd         =   0.0000000000000000E+00
(PID.TID 0000.0001) %MON trcstat_ptracer1X_del2       =   0.0000000000000000E+00
(PID.TID 0000.0001) %MON trcstat_ptracer1Y_max        =   0.0000000000000000E+00
(PID.TID 0000.0001) %MON trcstat_ptracer1Y_min        =   0.0000000000000000E+00
(PID.TID 0000.0001) %MON trcstat_ptracer1Y_mean       =   0.0000000000000000E+00
(PID.TID 0000.0001) %MON trcstat_ptracer1Y_sd         =   0.0000000000000000E+00
(PID.TID 0000.0001) %MON trcstat_ptracer1Y_del2       =   0.0000000000000000E+00
(PID.TID 0000.0001) %MON trcstat_ptracer1Z_max        =   0.0000000000000000E+00
(PID.TID 0000.0001) %MON trcstat_ptracer1Z_min        =   0.0000000000000000E+00
(PID.TID 0000.0001) %MON trcstat_ptracer1Z_mean       =   0.0000000000000000E+00
(PID.TID 0000.0001) %MON trcstat_ptracer1Z_sd         =   0.0000000000000000E+00
(PID.TID 0000.0001) %MON trcstat_ptracer1Z_del2       =   0.0000000000000000E+00
(PID.TID 0000.0001) %MON trcstat_ptracer2a_max        =   0.0000000000000000E+00
(PID.TID 0000.0001) %MON trcstat_ptracer2a_min        =   0.0000000000000000E+00
(PID.TID 0000.0001) %MON trcstat_ptracer2a_mean       =   0.0000000000000000E+00
(PID.TID 0000.0001) %MON trcstat_ptracer2a_sd         =   0.0000000000000000E+00
(PID.TID 0000.0001) %MON trcstat_ptracer2a_del2       =   0.0000000000000000E+00
(PID.TID 0000.0001) %MON trcstat_ptracer2b_max        =   0.0000000000000000E+00
(PID.TID 0000.0001) %MON trcstat_ptracer2b_min        =   0.0000000000000000E+00
(PID.TID 0000.0001) %MON trcstat_ptracer2b_mean       =   0.0000000000000000E+00
(PID.TID 0000.0001) %MON trcstat_ptracer2b_sd         =   0.0000000000000000E+00
(PID.TID 0000.0001) %MON trcstat_ptracer2b_del2       =   0.0000000000000000E+00
(PID.TID 0000.0001) %MON trcstat_ptracer2c_max        =   0.0000000000000000E+00
(PID.TID 0000.0001) %MON trcstat_ptracer2c_min        =   0.0000000000000000E+00
(PID.TID 0000.0001) %MON trcstat_ptracer2c_mean       =   0.0000000000000000E+00
(PID.TID 0000.0001) %MON trcstat_ptracer2c_sd         =   0.0000000000000000E+00
(PID.TID 0000.0001) %MON trcstat_ptracer2c_del2       =   0.0000000000000000E+00
(PID.TID 0000.0001) %MON trcstat_ptracer2d_max        =   0.0000000000000000E+00
(PID.TID 0000.0001) %MON trcstat_ptracer2d_min        =   0.0000000000000000E+00
(PID.TID 0000.0001) %MON trcstat_ptracer2d_mean       =   0.0000000000000000E+00
(PID.TID 0000.0001) %MON trcstat_ptracer2d_sd         =   0.0000000000000000E+00
(PID.TID 0000.0001) %MON trcstat_ptracer2d_del2       =   0.0000000000000000E+00
(PID.TID 0000.0001) %MON trcstat_ptracer2e_max        =   0.0000000000000000E+00
(PID.TID 0000.0001) %MON trcstat_ptracer2e_min        =   0.0000000000000000E+00
(PID.TID 0000.0001) %MON trcstat_ptracer2e_mean       =   0.0000000000000000E+00
(PID.TID 0000.0001) %MON trcstat_ptracer2e_sd         =   0.0000000000000000E+00
(PID.TID 0000.0001) %MON trcstat_ptracer2e_del2       =   0.0000000000000000E+00
(PID.TID 0000.0001) %MON trcstat_ptracer2f_max        =   0.0000000000000000E+00
(PID.TID 0000.0001) %MON trcstat_ptracer2f_min        =   0.0000000000000000E+00
(PID.TID 0000.0001) %MON trcstat_ptracer2f_mean       =   0.0000000000000000E+00
(PID.TID 0000.0001) %MON trcstat_ptracer2f_sd         =   0.0000000000000000E+00
(PID.TID 0000.0001) %MON trcstat_ptracer2f_del2       =   0.0000000000000000E+00
(PID.TID 0000.0001) %MON trcstat_ptracer2g_max        =   1.2527028530273786E-02
(PID.TID 0000.0001) %MON trcstat_ptracer2g_min        =   4.5195868574280523E-06
(PID.TID 0000.0001) %MON trcstat_ptracer2g_mean       =   3.0783936213935731E-04
(PID.TID 0000.0001) %MON trcstat_ptracer2g_sd         =   1.5857513819000928E-03
(PID.TID 0000.0001) %MON trcstat_ptracer2g_del2       =   0.0000000000000000E+00
(PID.TID 0000.0001) %MON trcstat_ptracer2h_max        =   1.2767463707204061E-02
(PID.TID 0000.0001) %MON trcstat_ptracer2h_min        =   4.5225030226428384E-06
(PID.TID 0000.0001) %MON trcstat_ptracer2h_mean       =   3.1574995512268742E-04
(PID.TID 0000.0001) %MON trcstat_ptracer2h_sd         =   1.6222056182595671E-03
(PID.TID 0000.0001) %MON trcstat_ptracer2h_del2       =   0.0000000000000000E+00
(PID.TID 0000.0001) %MON trcstat_ptracer2i_max        =   1.2997048862179667E-02
(PID.TID 0000.0001) %MON trcstat_ptracer2i_min        =   4.5253054225145607E-06
(PID.TID 0000.0001) %MON trcstat_ptracer2i_mean       =   3.2364398911942106E-04
(PID.TID 0000.0001) %MON trcstat_ptracer2i_sd         =   1.6584033651882541E-03
(PID.TID 0000.0001) %MON trcstat_ptracer2i_del2       =   0.0000000000000000E+00
(PID.TID 0000.0001) %MON trcstat_ptracer2j_max        =   1.3215742489567738E-02
(PID.TID 0000.0001) %MON trcstat_ptracer2j_min        =   4.5280801947339683E-06
(PID.TID 0000.0001) %MON trcstat_ptracer2j_mean       =   3.3151283471585764E-04
(PID.TID 0000.0001) %MON trcstat_ptracer2j_sd         =   1.6943200620668257E-03
(PID.TID 0000.0001) %MON trcstat_ptracer2j_del2       =   0.0000000000000000E+00
(PID.TID 0000.0001) %MON trcstat_ptracer2k_max        =   1.3025536846478613E-03
(PID.TID 0000.0001) %MON trcstat_ptracer2k_min        =   4.5267999539044003E-07
(PID.TID 0000.0001) %MON trcstat_ptracer2k_mean       =   3.2467773477097000E-05
(PID.TID 0000.0001) %MON trcstat_ptracer2k_sd         =   1.6631010410551308E-04
(PID.TID 0000.0001) %MON trcstat_ptracer2k_del2       =   0.0000000000000000E+00
(PID.TID 0000.0001) %MON trcstat_ptracer2l_max        =   1.5233589939586220E-02
(PID.TID 0000.0001) %MON trcstat_ptracer2l_min        =   4.5472481148395622E-06
(PID.TID 0000.0001) %MON trcstat_ptracer2l_mean       =   4.3211105648693627E-04
(PID.TID 0000.0001) %MON trcstat_ptracer2l_sd         =   2.1482698653916251E-03
(PID.TID 0000.0001) %MON trcstat_ptracer2l_del2       =   0.0000000000000000E+00
(PID.TID 0000.0001) %MON trcstat_ptracer2m_max        =   1.6378109681957270E-02
(PID.TID 0000.0001) %MON trcstat_ptracer2m_min        =   4.5516608688719297E-06
(PID.TID 0000.0001) %MON trcstat_ptracer2m_mean       =   4.9790300700070813E-04
(PID.TID 0000.0001) %MON trcstat_ptracer2m_sd         =   2.4605697034427855E-03
(PID.TID 0000.0001) %MON trcstat_ptracer2m_del2       =   0.0000000000000000E+00
(PID.TID 0000.0001) %MON trcstat_ptracer2n_max        =   1.2521928781294913E-03
(PID.TID 0000.0001) %MON trcstat_ptracer2n_min        =   4.5224180965093855E-07
(PID.TID 0000.0001) %MON trcstat_ptracer2n_mean       =   3.0774735187874602E-05
(PID.TID 0000.0001) %MON trcstat_ptracer2n_sd         =   1.5852543804283385E-04
(PID.TID 0000.0001) %MON trcstat_ptracer2n_del2       =   0.0000000000000000E+00
(PID.TID 0000.0001) %MON trcstat_ptracer2o_max        =   1.5021433110906746E-02
(PID.TID 0000.0001) %MON trcstat_ptracer2o_min        =   4.5468209386830454E-06
(PID.TID 0000.0001) %MON trcstat_ptracer2o_mean       =   4.1768519529844180E-04
(PID.TID 0000.0001) %MON trcstat_ptracer2o_sd         =   2.0827564375896735E-03
(PID.TID 0000.0001) %MON trcstat_ptracer2o_del2       =   0.0000000000000000E+00
(PID.TID 0000.0001) %MON trcstat_ptracer2p_max        =   1.5725413672194408E-02
(PID.TID 0000.0001) %MON trcstat_ptracer2p_min        =   4.5511161763078513E-06
(PID.TID 0000.0001) %MON trcstat_ptracer2p_mean       =   4.7356988925511179E-04
(PID.TID 0000.0001) %MON trcstat_ptracer2p_sd         =   2.3403879339724794E-03
(PID.TID 0000.0001) %MON trcstat_ptracer2p_del2       =   0.0000000000000000E+00
(PID.TID 0000.0001) %MON trcstat_ptracer2q_max        =   1.1969263048581464E-03
(PID.TID 0000.0001) %MON trcstat_ptracer2q_min        =   4.5178796809707817E-07
(PID.TID 0000.0001) %MON trcstat_ptracer2q_mean       =   2.9078688050733683E-05
(PID.TID 0000.0001) %MON trcstat_ptracer2q_sd         =   1.5063882801065034E-04
(PID.TID 0000.0001) %MON trcstat_ptracer2q_del2       =   0.0000000000000000E+00
(PID.TID 0000.0001) %MON trcstat_ptracer2r_max        =   1.4775873410211388E-02
(PID.TID 0000.0001) %MON trcstat_ptracer2r_min        =   4.5469810220529157E-06
(PID.TID 0000.0001) %MON trcstat_ptracer2r_mean       =   4.0265486289974304E-04
(PID.TID 0000.0001) %MON trcstat_ptracer2r_sd         =   2.0149275241303235E-03
(PID.TID 0000.0001) %MON trcstat_ptracer2r_del2       =   0.0000000000000000E+00
(PID.TID 0000.0001) %MON trcstat_ptracer2s_max        =   1.5594448088931737E-02
(PID.TID 0000.0001) %MON trcstat_ptracer2s_min        =   4.5505821667692694E-06
(PID.TID 0000.0001) %MON trcstat_ptracer2s_mean       =   4.6097690505093381E-04
(PID.TID 0000.0001) %MON trcstat_ptracer2s_sd         =   2.2810729826387385E-03
(PID.TID 0000.0001) %MON trcstat_ptracer2s_del2       =   0.0000000000000000E+00
(PID.TID 0000.0001) %MON trcstat_ptracer2t_max        =   1.1369468611849567E-03
(PID.TID 0000.0001) %MON trcstat_ptracer2t_min        =   4.5137458390272108E-07
(PID.TID 0000.0001) %MON trcstat_ptracer2t_mean       =   2.7387418168738657E-05
(PID.TID 0000.0001) %MON trcstat_ptracer2t_sd         =   1.4267440888769987E-04
(PID.TID 0000.0001) %MON trcstat_ptracer2t_del2       =   0.0000000000000000E+00
(PID.TID 0000.0001) %MON trcstat_ptracer2u_max        =   1.4492626482544074E-02
(PID.TID 0000.0001) %MON trcstat_ptracer2u_min        =   4.5456441889108212E-06
(PID.TID 0000.0001) %MON trcstat_ptracer2u_mean       =   3.8709196535312187E-04
(PID.TID 0000.0001) %MON trcstat_ptracer2u_sd         =   1.9449296321395627E-03
(PID.TID 0000.0001) %MON trcstat_ptracer2u_del2       =   0.0000000000000000E+00
(PID.TID 0000.0001) %MON trcstat_ptracer2v_max        =   1.5442044395843608E-02
(PID.TID 0000.0001) %MON trcstat_ptracer2v_min        =   4.5499464602118665E-06
(PID.TID 0000.0001) %MON trcstat_ptracer2v_mean       =   4.4812853058490994E-04
(PID.TID 0000.0001) %MON trcstat_ptracer2v_sd         =   2.2213655427766473E-03
(PID.TID 0000.0001) %MON trcstat_ptracer2v_del2       =   0.0000000000000000E+00
(PID.TID 0000.0001) %MON trcstat_ptracer2w_max        =   1.0726697040846522E-03
(PID.TID 0000.0001) %MON trcstat_ptracer2w_min        =   4.5112148679641084E-07
(PID.TID 0000.0001) %MON trcstat_ptracer2w_mean       =   2.5709083936763048E-05
(PID.TID 0000.0001) %MON trcstat_ptracer2w_sd         =   1.3466311478291693E-04
(PID.TID 0000.0001) %MON trcstat_ptracer2w_del2       =   0.0000000000000000E+00
(PID.TID 0000.0001) %MON trcstat_ptracer2x_max        =   1.4167773572863286E-02
(PID.TID 0000.0001) %MON trcstat_ptracer2x_min        =   4.5440487092122347E-06
(PID.TID 0000.0001) %MON trcstat_ptracer2x_mean       =   3.7108043536201356E-04
(PID.TID 0000.0001) %MON trcstat_ptracer2x_sd         =   1.8729359930432395E-03
(PID.TID 0000.0001) %MON trcstat_ptracer2x_del2       =   0.0000000000000000E+00
(PID.TID 0000.0001) %MON trcstat_ptracer2y_max        =   1.5263471155853262E-02
(PID.TID 0000.0001) %MON trcstat_ptracer2y_min        =   4.5491928652186373E-06
(PID.TID 0000.0001) %MON trcstat_ptracer2y_mean       =   4.3451905020306872E-04
(PID.TID 0000.0001) %MON trcstat_ptracer2y_sd         =   2.1588075101723219E-03
(PID.TID 0000.0001) %MON trcstat_ptracer2y_del2       =   0.0000000000000000E+00
(PID.TID 0000.0001) %MON trcstat_ptracer2z_max        =   1.3797614536510423E-02
(PID.TID 0000.0001) %MON trcstat_ptracer2z_min        =   4.5421468427255316E-06
(PID.TID 0000.0001) %MON trcstat_ptracer2z_mean       =   3.5470666077410296E-04
(PID.TID 0000.0001) %MON trcstat_ptracer2z_sd         =   1.7991122120719254E-03
(PID.TID 0000.0001) %MON trcstat_ptracer2z_del2       =   0.0000000000000000E+00
(PID.TID 0000.0001) %MON trcstat_ptracer2A_max        =   1.5054931125808468E-02
(PID.TID 0000.0001) %MON trcstat_ptracer2A_min        =   4.5483082031429694E-06
(PID.TID 0000.0001) %MON trcstat_ptracer2A_mean       =   4.2021395208149650E-04
(PID.TID 0000.0001) %MON trcstat_ptracer2A_sd         =   2.0936276817736070E-03
(PID.TID 0000.0001) %MON trcstat_ptracer2A_del2       =   0.0000000000000000E+00
(PID.TID 0000.0001) %MON trcstat_ptracer2B_max        =   1.4811938846265329E-02
(PID.TID 0000.0001) %MON trcstat_ptracer2B_min        =   4.5472933397129393E-06
(PID.TID 0000.0001) %MON trcstat_ptracer2B_mean       =   4.0528066548250975E-04
(PID.TID 0000.0001) %MON trcstat_ptracer2B_sd         =   2.0259997047982381E-03
(PID.TID 0000.0001) %MON trcstat_ptracer2B_del2       =   0.0000000000000000E+00
(PID.TID 0000.0001) %MON trcstat_ptracer2C_max        =   1.4529986352151584E-02
(PID.TID 0000.0001) %MON trcstat_ptracer2C_min        =   4.5461940318313737E-06
(PID.TID 0000.0001) %MON trcstat_ptracer2C_mean       =   3.8980125944586746E-04
(PID.TID 0000.0001) %MON trcstat_ptracer2C_sd         =   1.9561179293634246E-03
(PID.TID 0000.0001) %MON trcstat_ptracer2C_del2       =   0.0000000000000000E+00
(PID.TID 0000.0001) %MON trcstat_ptracer2D_max        =   1.4204073346606691E-02
(PID.TID 0000.0001) %MON trcstat_ptracer2D_min        =   4.5451854159422202E-06
(PID.TID 0000.0001) %MON trcstat_ptracer2D_mean       =   3.7385903943641500E-04
(PID.TID 0000.0001) %MON trcstat_ptracer2D_sd         =   1.8841379023033864E-03
(PID.TID 0000.0001) %MON trcstat_ptracer2D_del2       =   0.0000000000000000E+00
(PID.TID 0000.0001) // =======================================================
(PID.TID 0000.0001) // End MONITOR ptracers field statistics
(PID.TID 0000.0001) // =======================================================
 Computing Diagnostic #    160  TRAC01       Counter:       1   Parms: SMR     MR      
 Computing Diagnostic #    174  TRAC02       Counter:       1   Parms: SMR     MR      
 Computing Diagnostic #    188  TRAC03       Counter:       1   Parms: SMR     MR      
 Computing Diagnostic #    202  TRAC04       Counter:       1   Parms: SMR     MR      
 Computing Diagnostic #    216  TRAC05       Counter:       1   Parms: SMR     MR      
 Computing Diagnostic #    230  TRAC06       Counter:       1   Parms: SMR     MR      
 Computing Diagnostic #    244  TRAC07       Counter:       1   Parms: SMR     MR      
 Computing Diagnostic #    258  TRAC08       Counter:       1   Parms: SMR     MR      
 Computing Diagnostic #    272  TRAC09       Counter:       1   Parms: SMR     MR      
 Computing Diagnostic #    286  TRAC10       Counter:       1   Parms: SMR     MR      
 Computing Diagnostic #    300  TRAC11       Counter:       1   Parms: SMR     MR      
 Computing Diagnostic #    314  TRAC12       Counter:       1   Parms: SMR     MR      
 Computing Diagnostic #    328  TRAC13       Counter:       1   Parms: SMR     MR      
 Computing Diagnostic #    342  TRAC14       Counter:       1   Parms: SMR     MR      
 Computing Diagnostic #    356  TRAC15       Counter:       1   Parms: SMR     MR      
 Computing Diagnostic #    370  TRAC16       Counter:       1   Parms: SMR     MR      
 Computing Diagnostic #    384  TRAC17       Counter:       1   Parms: SMR     MR      
 Computing Diagnostic #    398  TRAC18       Counter:       1   Parms: SMR     MR      
 Computing Diagnostic #    412  TRAC19       Counter:       1   Parms: SMR     MR      
 Computing Diagnostic #    426  TRAC20       Counter:       1   Parms: SMR     MR      
 Computing Diagnostic #    440  TRAC21       Counter:       1   Parms: SMR     MR      
 Computing Diagnostic #    454  TRAC22       Counter:       1   Parms: SMR     MR      
 Computing Diagnostic #    468  TRAC23       Counter:       1   Parms: SMR     MR      
 Computing Diagnostic #    482  TRAC24       Counter:       1   Parms: SMR     MR      
 Computing Diagnostic #    496  TRAC25       Counter:       1   Parms: SMR     MR      
 Computing Diagnostic #    510  TRAC26       Counter:       1   Parms: SMR     MR      
 Computing Diagnostic #    524  TRAC27       Counter:       1   Parms: SMR     MR      
 Computing Diagnostic #    538  TRAC28       Counter:       1   Parms: SMR     MR      
 Computing Diagnostic #    552  TRAC29       Counter:       1   Parms: SMR     MR      
 Computing Diagnostic #    566  TRAC30       Counter:       1   Parms: SMR     MR      
 Computing Diagnostic #    580  TRAC31       Counter:       1   Parms: SMR     MR      
 Computing Diagnostic #    594  TRAC32       Counter:       1   Parms: SMR     MR      
 Computing Diagnostic #    608  TRAC33       Counter:       1   Parms: SMR     MR      
 Computing Diagnostic #    622  TRAC34       Counter:       1   Parms: SMR     MR      
 Computing Diagnostic #    636  TRAC35       Counter:       1   Parms: SMR     MR      
 Computing Diagnostic #    650  TRAC36       Counter:       1   Parms: SMR     MR      
 Computing Diagnostic #    664  TRAC37       Counter:       1   Parms: SMR     MR      
 Computing Diagnostic #    678  TRAC38       Counter:       1   Parms: SMR     MR      
 Computing Diagnostic #    692  TRAC39       Counter:       1   Parms: SMR     MR      
 Computing Diagnostic #    706  TRAC40       Counter:       1   Parms: SMR     MR      
 Computing Diagnostic #    720  TRAC41       Counter:       1   Parms: SMR     MR      
 Computing Diagnostic #    734  TRAC42       Counter:       1   Parms: SMR     MR      
 Computing Diagnostic #    748  TRAC43       Counter:       1   Parms: SMR     MR      
 Computing Diagnostic #    762  TRAC44       Counter:       1   Parms: SMR     MR      
 Computing Diagnostic #    776  TRAC45       Counter:       1   Parms: SMR     MR      
 Computing Diagnostic #    790  TRAC46       Counter:       1   Parms: SMR     MR      
 Computing Diagnostic #    804  TRAC47       Counter:       1   Parms: SMR     MR      
 Computing Diagnostic #    818  TRAC48       Counter:       1   Parms: SMR     MR      
 Computing Diagnostic #    832  TRAC49       Counter:       1   Parms: SMR     MR      
 Computing Diagnostic #    846  TRAC50       Counter:       1   Parms: SMR     MR      
 Computing Diagnostic #    860  TRAC51       Counter:       1   Parms: SMR     MR      
 Computing Diagnostic #    874  TRAC52       Counter:       1   Parms: SMR     MR      
 Computing Diagnostic #    888  TRAC53       Counter:       1   Parms: SMR     MR      
 Computing Diagnostic #    902  TRAC54       Counter:       1   Parms: SMR     MR      
 Computing Diagnostic #    916  TRAC55       Counter:       1   Parms: SMR     MR      
 Computing Diagnostic #    930  TRAC56       Counter:       1   Parms: SMR     MR      
 Computing Diagnostic #    944  TRAC57       Counter:       1   Parms: SMR     MR      
 Computing Diagnostic #    958  TRAC58       Counter:       1   Parms: SMR     MR      
 Computing Diagnostic #    972  TRAC59       Counter:       1   Parms: SMR     MR      
 Computing Diagnostic #    986  TRAC60       Counter:       1   Parms: SMR     MR      
 Computing Diagnostic #   1000  TRAC61       Counter:       1   Parms: SMR     MR      
 Computing Diagnostic #   1014  TRAC62       Counter:       1   Parms: SMR     MR      
 Computing Diagnostic #   1028  TRAC63       Counter:       1   Parms: SMR     MR      
 Computing Diagnostic #   1042  TRAC64       Counter:       1   Parms: SMR     MR      
 Computing Diagnostic #   1056  TRAC65       Counter:       1   Parms: SMR     MR      
 Computing Diagnostic #   1070  TRAC66       Counter:       1   Parms: SMR     MR      
 Computing Diagnostic #   1084  TRAC67       Counter:       1   Parms: SMR     MR      
 Computing Diagnostic #   1098  TRAC68       Counter:       1   Parms: SMR     MR      
 Computing Diagnostic #   1112  TRAC69       Counter:       1   Parms: SMR     MR      
 Computing Diagnostic #   1126  TRAC70       Counter:       1   Parms: SMR     MR      
 Computing Diagnostic #   1140  TRAC71       Counter:       1   Parms: SMR     MR      
 Computing Diagnostic #   1154  TRAC72       Counter:       1   Parms: SMR     MR      
 Computing Diagnostic #   1168  TRAC73       Counter:       1   Parms: SMR     MR      
 Computing Diagnostic #   1182  TRAC74       Counter:       1   Parms: SMR     MR      
 Computing Diagnostic #   1196  TRAC75       Counter:       1   Parms: SMR     MR      
 Computing Diagnostic #   1210  TRAC76       Counter:       1   Parms: SMR     MR      
 Computing Diagnostic #   1224  TRAC77       Counter:       1   Parms: SMR     MR      
 Computing Diagnostic #   1238  TRAC78       Counter:       1   Parms: SMR     MR      
 Computing Diagnostic #   1252  TRAC79       Counter:       1   Parms: SMR     MR      
 Computing Diagnostic #   1266  TRAC80       Counter:       1   Parms: SMR     MR      
 Computing Diagnostic #   1280  TRAC81       Counter:       1   Parms: SMR     MR      
 Computing Diagnostic #   1294  TRAC82       Counter:       1   Parms: SMR     MR      
 Computing Diagnostic #   1308  TRAC83       Counter:       1   Parms: SMR     MR      
 Computing Diagnostic #   1322  TRAC84       Counter:       1   Parms: SMR     MR      
 Computing Diagnostic #   1336  TRAC85       Counter:       1   Parms: SMR     MR      
 Computing Diagnostic #   1350  TRAC86       Counter:       1   Parms: SMR     MR      
 Computing Diagnostic #   1364  TRAC87       Counter:       1   Parms: SMR     MR      
 Computing Diagnostic #   1378  TRAC88       Counter:       1   Parms: SMR     MR      
 Computing Diagnostic #   1392  TRAC89       Counter:       1   Parms: SMR     MR      
 Computing Diagnostic #   1406  TRAC90       Counter:       1   Parms: SMR     MR      
 Computing Diagnostic #   1420  TRAC91       Counter:       1   Parms: SMR     MR      
 Computing Diagnostic #   1434  TRAC92       Counter:       1   Parms: SMR     MR      
 Computing Diagnostic #   1448  TRAC93       Counter:       1   Parms: SMR     MR      
 Computing Diagnostic #   1462  TRAC94       Counter:       1   Parms: SMR     MR      
 Computing Diagnostic #   1476  TRAC95       Counter:       1   Parms: SMR     MR      
 Computing Diagnostic #   1490  TRAC96       Counter:       1   Parms: SMR     MR      
 Computing Diagnostic #   1504  TRAC97       Counter:       1   Parms: SMR     MR      
 Computing Diagnostic #   1518  TRAC98       Counter:       1   Parms: SMR     MR      
 Computing Diagnostic #   1532  TRAC99       Counter:       1   Parms: SMR     MR      
 Computing Diagnostic #   1546  TRAC0a       Counter:       1   Parms: SMR     MR      
 Computing Diagnostic #   1560  TRAC0b       Counter:       1   Parms: SMR     MR      
 Computing Diagnostic #   1574  TRAC0c       Counter:       1   Parms: SMR     MR      
 Computing Diagnostic #   1588  TRAC0d       Counter:       1   Parms: SMR     MR      
 Computing Diagnostic #   1602  TRAC0e       Counter:       1   Parms: SMR     MR      
 Computing Diagnostic #   1616  TRAC0f       Counter:       1   Parms: SMR     MR      
 Computing Diagnostic #   1630  TRAC0g       Counter:       1   Parms: SMR     MR      
 Computing Diagnostic #   1644  TRAC0h       Counter:       1   Parms: SMR     MR      
 Computing Diagnostic #   1658  TRAC0i       Counter:       1   Parms: SMR     MR      
 Computing Diagnostic #   1672  TRAC0j       Counter:       1   Parms: SMR     MR      
 Computing Diagnostic #   1686  TRAC0k       Counter:       1   Parms: SMR     MR      
 Computing Diagnostic #   1700  TRAC0l       Counter:       1   Parms: SMR     MR      
 Computing Diagnostic #   1714  TRAC0m       Counter:       1   Parms: SMR     MR      
 Computing Diagnostic #   1728  TRAC0n       Counter:       1   Parms: SMR     MR      
 Computing Diagnostic #    160  TRAC01       Counter:       1   Parms: SMR     MR      
 Computing Diagnostic #   1742  TRAC0o       Counter:       1   Parms: SMR     MR      
 Computing Diagnostic #   1770  TRAC0q       Counter:       1   Parms: SMR     MR      
 Computing Diagnostic #   1784  TRAC0r       Counter:       1   Parms: SMR     MR      
 Computing Diagnostic #   1798  TRAC0s       Counter:       1   Parms: SMR     MR      
 Computing Diagnostic #   1812  TRAC0t       Counter:       1   Parms: SMR     MR      
 Computing Diagnostic #   1826  TRAC0u       Counter:       1   Parms: SMR     MR      
 Computing Diagnostic #   1840  TRAC0v       Counter:       1   Parms: SMR     MR      
 Computing Diagnostic #   1854  TRAC0w       Counter:       1   Parms: SMR     MR      
 Computing Diagnostic #   1868  TRAC0x       Counter:       1   Parms: SMR     MR      
 Computing Diagnostic #   1882  TRAC0y       Counter:       1   Parms: SMR     MR      
 Computing Diagnostic #   1896  TRAC0z       Counter:       1   Parms: SMR     MR      
 Computing Diagnostic #   1910  TRAC0A       Counter:       1   Parms: SMR     MR      
 Computing Diagnostic #   1924  TRAC0B       Counter:       1   Parms: SMR     MR      
 Computing Diagnostic #   1938  TRAC0C       Counter:       1   Parms: SMR     MR      
 Computing Diagnostic #   1952  TRAC0D       Counter:       1   Parms: SMR     MR      
 Computing Diagnostic #   1966  TRAC0E       Counter:       1   Parms: SMR     MR      
 Computing Diagnostic #   1980  TRAC0F       Counter:       1   Parms: SMR     MR      
 Computing Diagnostic #   1994  TRAC0G       Counter:       1   Parms: SMR     MR      
 Computing Diagnostic #   2008  TRAC0H       Counter:       1   Parms: SMR     MR      
 Computing Diagnostic #   2022  TRAC0I       Counter:       1   Parms: SMR     MR      
 Computing Diagnostic #   2036  TRAC0J       Counter:       1   Parms: SMR     MR      
 Computing Diagnostic #   2050  TRAC0K       Counter:       1   Parms: SMR     MR      
 Computing Diagnostic #   2064  TRAC0L       Counter:       1   Parms: SMR     MR      
 Computing Diagnostic #   2078  TRAC0M       Counter:       1   Parms: SMR     MR      
 Computing Diagnostic #   2092  TRAC0N       Counter:       1   Parms: SMR     MR      
 Computing Diagnostic #    160  TRAC01       Counter:       1   Parms: SMR     MR      
 Computing Diagnostic #   2106  TRAC0O       Counter:       1   Parms: SMR     MR      
 Computing Diagnostic #   2134  TRAC0Q       Counter:       1   Parms: SMR     MR      
 Computing Diagnostic #   2148  TRAC0R       Counter:       1   Parms: SMR     MR      
 Computing Diagnostic #   2162  TRAC0S       Counter:       1   Parms: SMR     MR      
 Computing Diagnostic #   2176  TRAC0T       Counter:       1   Parms: SMR     MR      
 Computing Diagnostic #   2190  TRAC0U       Counter:       1   Parms: SMR     MR      
 Computing Diagnostic #   2204  TRAC0V       Counter:       1   Parms: SMR     MR      
 Computing Diagnostic #   2218  TRAC0W       Counter:       1   Parms: SMR     MR      
 Computing Diagnostic #   2232  TRAC0X       Counter:       1   Parms: SMR     MR      
 Computing Diagnostic #   2246  TRAC0Y       Counter:       1   Parms: SMR     MR      
 Computing Diagnostic #   2260  TRAC0Z       Counter:       1   Parms: SMR     MR      
 Computing Diagnostic #   2274  TRAC1a       Counter:       1   Parms: SMR     MR      
 Computing Diagnostic #   2288  TRAC1b       Counter:       1   Parms: SMR     MR      
 Computing Diagnostic #   2302  TRAC1c       Counter:       1   Parms: SMR     MR      
 Computing Diagnostic #   2316  TRAC1d       Counter:       1   Parms: SMR     MR      
 Computing Diagnostic #   2330  TRAC1e       Counter:       1   Parms: SMR     MR      
 Computing Diagnostic #   2344  TRAC1f       Counter:       1   Parms: SMR     MR      
 Computing Diagnostic #   2358  TRAC1g       Counter:       1   Parms: SMR     MR      
 Computing Diagnostic #   2372  TRAC1h       Counter:       1   Parms: SMR     MR      
 Computing Diagnostic #   2386  TRAC1i       Counter:       1   Parms: SMR     MR      
 Computing Diagnostic #   2400  TRAC1j       Counter:       1   Parms: SMR     MR      
 Computing Diagnostic #   2414  TRAC1k       Counter:       1   Parms: SMR     MR      
 Computing Diagnostic #   2428  TRAC1l       Counter:       1   Parms: SMR     MR      
 Computing Diagnostic #   2442  TRAC1m       Counter:       1   Parms: SMR     MR      
 Computing Diagnostic #   2456  TRAC1n       Counter:       1   Parms: SMR     MR      
 Computing Diagnostic #    300  TRAC11       Counter:       1   Parms: SMR     MR      
 Computing Diagnostic #   2470  TRAC1o       Counter:       1   Parms: SMR     MR      
 Computing Diagnostic #   2498  TRAC1q       Counter:       1   Parms: SMR     MR      
 Computing Diagnostic #   2512  TRAC1r       Counter:       1   Parms: SMR     MR      
 Computing Diagnostic #   2526  TRAC1s       Counter:       1   Parms: SMR     MR      
 Computing Diagnostic #   2540  TRAC1t       Counter:       1   Parms: SMR     MR      
 Computing Diagnostic #   2554  TRAC1u       Counter:       1   Parms: SMR     MR      
 Computing Diagnostic #   2568  TRAC1v       Counter:       1   Parms: SMR     MR      
 Computing Diagnostic #   2582  TRAC1w       Counter:       1   Parms: SMR     MR      
 Computing Diagnostic #   2596  TRAC1x       Counter:       1   Parms: SMR     MR      
 Computing Diagnostic #   2610  TRAC1y       Counter:       1   Parms: SMR     MR      
 Computing Diagnostic #   2624  TRAC1z       Counter:       1   Parms: SMR     MR      
 Computing Diagnostic #   2638  TRAC1A       Counter:       1   Parms: SMR     MR      
 Computing Diagnostic #   2652  TRAC1B       Counter:       1   Parms: SMR     MR      
 Computing Diagnostic #   2666  TRAC1C       Counter:       1   Parms: SMR     MR      
 Computing Diagnostic #   2680  TRAC1D       Counter:       1   Parms: SMR     MR      
 Computing Diagnostic #   2694  TRAC1E       Counter:       1   Parms: SMR     MR      
 Computing Diagnostic #   2708  TRAC1F       Counter:       1   Parms: SMR     MR      
 Computing Diagnostic #   2722  TRAC1G       Counter:       1   Parms: SMR     MR      
 Computing Diagnostic #   2736  TRAC1H       Counter:       1   Parms: SMR     MR      
 Computing Diagnostic #   2750  TRAC1I       Counter:       1   Parms: SMR     MR      
 Computing Diagnostic #   2764  TRAC1J       Counter:       1   Parms: SMR     MR      
 Computing Diagnostic #   2778  TRAC1K       Counter:       1   Parms: SMR     MR      
 Computing Diagnostic #   2792  TRAC1L       Counter:       1   Parms: SMR     MR      
 Computing Diagnostic #   2806  TRAC1M       Counter:       1   Parms: SMR     MR      
 Computing Diagnostic #   2820  TRAC1N       Counter:       1   Parms: SMR     MR      
 Computing Diagnostic #    300  TRAC11       Counter:       1   Parms: SMR     MR      
 Computing Diagnostic #   2834  TRAC1O       Counter:       1   Parms: SMR     MR      
 Computing Diagnostic #   2862  TRAC1Q       Counter:       1   Parms: SMR     MR      
 Computing Diagnostic #   2876  TRAC1R       Counter:       1   Parms: SMR     MR      
 Computing Diagnostic #   2890  TRAC1S       Counter:       1   Parms: SMR     MR      
 Computing Diagnostic #   2904  TRAC1T       Counter:       1   Parms: SMR     MR      
 Computing Diagnostic #   2918  TRAC1U       Counter:       1   Parms: SMR     MR      
 Computing Diagnostic #   2932  TRAC1V       Counter:       1   Parms: SMR     MR      
 Computing Diagnostic #   2946  TRAC1W       Counter:       1   Parms: SMR     MR      
 Computing Diagnostic #   2960  TRAC1X       Counter:       1   Parms: SMR     MR      
 Computing Diagnostic #   2974  TRAC1Y       Counter:       1   Parms: SMR     MR      
 Computing Diagnostic #   2988  TRAC1Z       Counter:       1   Parms: SMR     MR      
 Computing Diagnostic #   3002  TRAC2a       Counter:       1   Parms: SMR     MR      
 Computing Diagnostic #   3016  TRAC2b       Counter:       1   Parms: SMR     MR      
 Computing Diagnostic #   3030  TRAC2c       Counter:       1   Parms: SMR     MR      
 Computing Diagnostic #   3044  TRAC2d       Counter:       1   Parms: SMR     MR      
 Computing Diagnostic #   3058  TRAC2e       Counter:       1   Parms: SMR     MR      
 Computing Diagnostic #   3072  TRAC2f       Counter:       1   Parms: SMR     MR      
 Computing Diagnostic #   3086  TRAC2g       Counter:       1   Parms: SMR     MR      
 Computing Diagnostic #   3100  TRAC2h       Counter:       1   Parms: SMR     MR      
 Computing Diagnostic #   3114  TRAC2i       Counter:       1   Parms: SMR     MR      
 Computing Diagnostic #   3128  TRAC2j       Counter:       1   Parms: SMR     MR      
 Computing Diagnostic #   3142  TRAC2k       Counter:       1   Parms: SMR     MR      
 Computing Diagnostic #   3156  TRAC2l       Counter:       1   Parms: SMR     MR      
 Computing Diagnostic #   3170  TRAC2m       Counter:       1   Parms: SMR     MR      
 Computing Diagnostic #   3184  TRAC2n       Counter:       1   Parms: SMR     MR      
 Computing Diagnostic #    440  TRAC21       Counter:       1   Parms: SMR     MR      
 Computing Diagnostic #   3198  TRAC2o       Counter:       1   Parms: SMR     MR      
 Computing Diagnostic #   3226  TRAC2q       Counter:       1   Parms: SMR     MR      
 Computing Diagnostic #   3240  TRAC2r       Counter:       1   Parms: SMR     MR      
 Computing Diagnostic #   3254  TRAC2s       Counter:       1   Parms: SMR     MR      
 Computing Diagnostic #   3268  TRAC2t       Counter:       1   Parms: SMR     MR      
 Computing Diagnostic #   3282  TRAC2u       Counter:       1   Parms: SMR     MR      
 Computing Diagnostic #   3296  TRAC2v       Counter:       1   Parms: SMR     MR      
 Computing Diagnostic #   3310  TRAC2w       Counter:       1   Parms: SMR     MR      
 Computing Diagnostic #   3324  TRAC2x       Counter:       1   Parms: SMR     MR      
 Computing Diagnostic #   3338  TRAC2y       Counter:       1   Parms: SMR     MR      
 Computing Diagnostic #   3352  TRAC2z       Counter:       1   Parms: SMR     MR      
 Computing Diagnostic #   3366  TRAC2A       Counter:       1   Parms: SMR     MR      
 Computing Diagnostic #   3380  TRAC2B       Counter:       1   Parms: SMR     MR      
 Computing Diagnostic #   3394  TRAC2C       Counter:       1   Parms: SMR     MR      
 Computing Diagnostic #   3408  TRAC2D       Counter:       1   Parms: SMR     MR      
 Computing Diagnostic #   3430  PAR01        Counter:       1   Parms: SM P    MR      
 Computing Diagnostic #   3423  PP           Counter:       1   Parms: SM P    MR      
 Computing Diagnostic #   3424  Nfix         Counter:       1   Parms: SM P    MR      
 Computing Diagnostic #   3425  Denit        Counter:       1   Parms: SM P    MR      
 Compute Stats, Diag. #   3423  PP        vol(   0 ): 3.081E+13  Parms: SM P    MR      
 Compute Stats, Diag. #   3424  Nfix      vol(   0 ): 3.081E+13  Parms: SM P    MR      
 Compute Stats, Diag. #   3425  Denit     vol(   0 ): 3.081E+13  Parms: SM P    MR      
(PID.TID 0000.0001) // =======================================================
(PID.TID 0000.0001) // Begin MONITOR EXF statistics
(PID.TID 0000.0001) // =======================================================
(PID.TID 0000.0001) %MON exf_tsnumber                 =                     3
(PID.TID 0000.0001) %MON exf_time_sec                 =   1.0800000000000000E+04
(PID.TID 0000.0001) %MON exf_ustress_max              =   0.0000000000000000E+00
(PID.TID 0000.0001) %MON exf_ustress_min              =   0.0000000000000000E+00
(PID.TID 0000.0001) %MON exf_ustress_mean             =   0.0000000000000000E+00
(PID.TID 0000.0001) %MON exf_ustress_sd               =   0.0000000000000000E+00
(PID.TID 0000.0001) %MON exf_ustress_del2             =   0.0000000000000000E+00
(PID.TID 0000.0001) %MON exf_vstress_max              =   0.0000000000000000E+00
(PID.TID 0000.0001) %MON exf_vstress_min              =   0.0000000000000000E+00
(PID.TID 0000.0001) %MON exf_vstress_mean             =   0.0000000000000000E+00
(PID.TID 0000.0001) %MON exf_vstress_sd               =   0.0000000000000000E+00
(PID.TID 0000.0001) %MON exf_vstress_del2             =   0.0000000000000000E+00
(PID.TID 0000.0001) %MON exf_hflux_max                =   0.0000000000000000E+00
(PID.TID 0000.0001) %MON exf_hflux_min                =   0.0000000000000000E+00
(PID.TID 0000.0001) %MON exf_hflux_mean               =   0.0000000000000000E+00
(PID.TID 0000.0001) %MON exf_hflux_sd                 =   0.0000000000000000E+00
(PID.TID 0000.0001) %MON exf_hflux_del2               =   0.0000000000000000E+00
(PID.TID 0000.0001) %MON exf_sflux_max                =   0.0000000000000000E+00
(PID.TID 0000.0001) %MON exf_sflux_min                =   0.0000000000000000E+00
(PID.TID 0000.0001) %MON exf_sflux_mean               =   0.0000000000000000E+00
(PID.TID 0000.0001) %MON exf_sflux_sd                 =   0.0000000000000000E+00
(PID.TID 0000.0001) %MON exf_sflux_del2               =   0.0000000000000000E+00
(PID.TID 0000.0001) %MON exf_uwind_max                =   0.0000000000000000E+00
(PID.TID 0000.0001) %MON exf_uwind_min                =   0.0000000000000000E+00
(PID.TID 0000.0001) %MON exf_uwind_mean               =   0.0000000000000000E+00
(PID.TID 0000.0001) %MON exf_uwind_sd                 =   0.0000000000000000E+00
(PID.TID 0000.0001) %MON exf_uwind_del2               =   0.0000000000000000E+00
(PID.TID 0000.0001) %MON exf_vwind_max                =   0.0000000000000000E+00
(PID.TID 0000.0001) %MON exf_vwind_min                =   0.0000000000000000E+00
(PID.TID 0000.0001) %MON exf_vwind_mean               =   0.0000000000000000E+00
(PID.TID 0000.0001) %MON exf_vwind_sd                 =   0.0000000000000000E+00
(PID.TID 0000.0001) %MON exf_vwind_del2               =   0.0000000000000000E+00
(PID.TID 0000.0001) %MON exf_wspeed_max               =   0.0000000000000000E+00
(PID.TID 0000.0001) %MON exf_wspeed_min               =   0.0000000000000000E+00
(PID.TID 0000.0001) %MON exf_wspeed_mean              =   0.0000000000000000E+00
(PID.TID 0000.0001) %MON exf_wspeed_sd                =   0.0000000000000000E+00
(PID.TID 0000.0001) %MON exf_wspeed_del2              =   0.0000000000000000E+00
(PID.TID 0000.0001) %MON exf_evap_max                 =   0.0000000000000000E+00
(PID.TID 0000.0001) %MON exf_evap_min                 =   0.0000000000000000E+00
(PID.TID 0000.0001) %MON exf_evap_mean                =   0.0000000000000000E+00
(PID.TID 0000.0001) %MON exf_evap_sd                  =   0.0000000000000000E+00
(PID.TID 0000.0001) %MON exf_evap_del2                =   0.0000000000000000E+00
(PID.TID 0000.0001) // =======================================================
(PID.TID 0000.0001) // End MONITOR EXF statistics
(PID.TID 0000.0001) // =======================================================
 EXTERNAL_FIELDS_LOAD,         3 : iP,iLd,i0,i1=   12    1   12    1 ; Wght=  0.4958333333  0.5041666667
(PID.TID 0000.0001) // =======================================================
(PID.TID 0000.0001) // Begin MONITOR dynamic field statistics
(PID.TID 0000.0001) // =======================================================
(PID.TID 0000.0001) %MON time_tsnumber                =                     4
(PID.TID 0000.0001) %MON time_secondsf                =   1.4400000000000000E+04
(PID.TID 0000.0001) %MON dynstat_eta_max              =   0.0000000000000000E+00
(PID.TID 0000.0001) %MON dynstat_eta_min              =   0.0000000000000000E+00
(PID.TID 0000.0001) %MON dynstat_eta_mean             =   0.0000000000000000E+00
(PID.TID 0000.0001) %MON dynstat_eta_sd               =   0.0000000000000000E+00
(PID.TID 0000.0001) %MON dynstat_eta_del2             =   0.0000000000000000E+00
(PID.TID 0000.0001) %MON dynstat_uvel_max             =   0.0000000000000000E+00
(PID.TID 0000.0001) %MON dynstat_uvel_min             =   0.0000000000000000E+00
(PID.TID 0000.0001) %MON dynstat_uvel_mean            =   0.0000000000000000E+00
(PID.TID 0000.0001) %MON dynstat_uvel_sd              =   0.0000000000000000E+00
(PID.TID 0000.0001) %MON dynstat_uvel_del2            =   0.0000000000000000E+00
(PID.TID 0000.0001) %MON dynstat_vvel_max             =   0.0000000000000000E+00
(PID.TID 0000.0001) %MON dynstat_vvel_min             =   0.0000000000000000E+00
(PID.TID 0000.0001) %MON dynstat_vvel_mean            =   0.0000000000000000E+00
(PID.TID 0000.0001) %MON dynstat_vvel_sd              =   0.0000000000000000E+00
(PID.TID 0000.0001) %MON dynstat_vvel_del2            =   0.0000000000000000E+00
(PID.TID 0000.0001) %MON dynstat_wvel_max             =   0.0000000000000000E+00
(PID.TID 0000.0001) %MON dynstat_wvel_min             =   0.0000000000000000E+00
(PID.TID 0000.0001) %MON dynstat_wvel_mean            =   0.0000000000000000E+00
(PID.TID 0000.0001) %MON dynstat_wvel_sd              =   0.0000000000000000E+00
(PID.TID 0000.0001) %MON dynstat_wvel_del2            =   0.0000000000000000E+00
(PID.TID 0000.0001) %MON dynstat_theta_max            =   8.2508948224563863E+00
(PID.TID 0000.0001) %MON dynstat_theta_min            =   1.5167024474105579E+00
(PID.TID 0000.0001) %MON dynstat_theta_mean           =   2.8238325601456404E+00
(PID.TID 0000.0001) %MON dynstat_theta_sd             =   1.3640210027633008E+00
(PID.TID 0000.0001) %MON dynstat_theta_del2           =   0.0000000000000000E+00
(PID.TID 0000.0001) %MON dynstat_salt_max             =   3.5000000000000000E+01
(PID.TID 0000.0001) %MON dynstat_salt_min             =   3.5000000000000000E+01
(PID.TID 0000.0001) %MON dynstat_salt_mean            =   3.4999999999999986E+01
(PID.TID 0000.0001) %MON dynstat_salt_sd              =   1.4210854715202004E-14
(PID.TID 0000.0001) %MON dynstat_salt_del2            =   0.0000000000000000E+00
(PID.TID 0000.0001) %MON dynstat_sst_max              =   8.2508948224563863E+00
(PID.TID 0000.0001) %MON dynstat_sst_min              =   8.2508948224563863E+00
(PID.TID 0000.0001) %MON dynstat_sst_mean             =   8.2508948224563863E+00
(PID.TID 0000.0001) %MON dynstat_sst_sd               =   0.0000000000000000E+00
(PID.TID 0000.0001) %MON dynstat_sst_del2             =   0.0000000000000000E+00
(PID.TID 0000.0001) %MON dynstat_sss_max              =   3.5000000000000000E+01
(PID.TID 0000.0001) %MON dynstat_sss_min              =   3.5000000000000000E+01
(PID.TID 0000.0001) %MON dynstat_sss_mean             =   3.5000000000000000E+01
(PID.TID 0000.0001) %MON dynstat_sss_sd               =   0.0000000000000000E+00
(PID.TID 0000.0001) %MON dynstat_sss_del2             =   0.0000000000000000E+00
(PID.TID 0000.0001) %MON forcing_qnet_max             =   0.0000000000000000E+00
(PID.TID 0000.0001) %MON forcing_qnet_min             =   0.0000000000000000E+00
(PID.TID 0000.0001) %MON forcing_qnet_mean            =   0.0000000000000000E+00
(PID.TID 0000.0001) %MON forcing_qnet_sd              =   0.0000000000000000E+00
(PID.TID 0000.0001) %MON forcing_qnet_del2            =   0.0000000000000000E+00
(PID.TID 0000.0001) %MON forcing_qsw_max              =   0.0000000000000000E+00
(PID.TID 0000.0001) %MON forcing_qsw_min              =   0.0000000000000000E+00
(PID.TID 0000.0001) %MON forcing_qsw_mean             =   0.0000000000000000E+00
(PID.TID 0000.0001) %MON forcing_qsw_sd               =   0.0000000000000000E+00
(PID.TID 0000.0001) %MON forcing_qsw_del2             =   0.0000000000000000E+00
(PID.TID 0000.0001) %MON forcing_empmr_max            =   0.0000000000000000E+00
(PID.TID 0000.0001) %MON forcing_empmr_min            =   0.0000000000000000E+00
(PID.TID 0000.0001) %MON forcing_empmr_mean           =   0.0000000000000000E+00
(PID.TID 0000.0001) %MON forcing_empmr_sd             =   0.0000000000000000E+00
(PID.TID 0000.0001) %MON forcing_empmr_del2           =   0.0000000000000000E+00
(PID.TID 0000.0001) %MON forcing_fu_max               =   2.2649708559115727E+00
(PID.TID 0000.0001) %MON forcing_fu_min               =   2.2649708559115727E+00
(PID.TID 0000.0001) %MON forcing_fu_mean              =   2.2649708559115727E+00
(PID.TID 0000.0001) %MON forcing_fu_sd                =   0.0000000000000000E+00
(PID.TID 0000.0001) %MON forcing_fu_del2              =   0.0000000000000000E+00
(PID.TID 0000.0001) %MON forcing_fv_max               =  -4.1337500251829623E-01
(PID.TID 0000.0001) %MON forcing_fv_min               =  -4.1337500251829623E-01
(PID.TID 0000.0001) %MON forcing_fv_mean              =  -4.1337500251829623E-01
(PID.TID 0000.0001) %MON forcing_fv_sd                =   0.0000000000000000E+00
(PID.TID 0000.0001) %MON forcing_fv_del2              =   0.0000000000000000E+00
(PID.TID 0000.0001) %MON advcfl_uvel_max              =   0.0000000000000000E+00
(PID.TID 0000.0001) %MON advcfl_vvel_max              =   0.0000000000000000E+00
(PID.TID 0000.0001) %MON advcfl_wvel_max              =   0.0000000000000000E+00
(PID.TID 0000.0001) %MON advcfl_W_hf_max              =   0.0000000000000000E+00
(PID.TID 0000.0001) %MON pe_b_mean                    =   0.0000000000000000E+00
(PID.TID 0000.0001) %MON ke_max                       =   0.0000000000000000E+00
(PID.TID 0000.0001) %MON ke_mean                      =   0.0000000000000000E+00
(PID.TID 0000.0001) %MON ke_vol                       =   3.0811817830111180E+13
(PID.TID 0000.0001) %MON vort_r_min                   =   0.0000000000000000E+00
(PID.TID 0000.0001) %MON vort_r_max                   =   0.0000000000000000E+00
(PID.TID 0000.0001) %MON vort_a_mean                  =  -1.0312619976227577E-04
(PID.TID 0000.0001) %MON vort_a_sd                    =   2.8760747774580336E-12
(PID.TID 0000.0001) %MON vort_p_mean                  =  -1.0312619976227577E-04
(PID.TID 0000.0001) %MON vort_p_sd                    =   2.8760747774580336E-12
(PID.TID 0000.0001) %MON surfExpan_theta_mean         =   0.0000000000000000E+00
(PID.TID 0000.0001) %MON surfExpan_salt_mean          =   0.0000000000000000E+00
(PID.TID 0000.0001) // =======================================================
(PID.TID 0000.0001) // End MONITOR dynamic field statistics
(PID.TID 0000.0001) // =======================================================
(PID.TID 0000.0001) // =======================================================
(PID.TID 0000.0001) // Begin MONITOR ptracer field statistics
(PID.TID 0000.0001) // =======================================================
(PID.TID 0000.0001) %MON trcstat_ptracer01_max        =   2.2359129433390867E+03
(PID.TID 0000.0001) %MON trcstat_ptracer01_min        =   2.0738263665676641E+03
(PID.TID 0000.0001) %MON trcstat_ptracer01_mean       =   2.2089823634244403E+03
(PID.TID 0000.0001) %MON trcstat_ptracer01_sd         =   4.0008495242977254E+01
(PID.TID 0000.0001) %MON trcstat_ptracer01_del2       =   0.0000000000000000E+00
(PID.TID 0000.0001) %MON trcstat_ptracer02_max        =   3.5061433516962731E-01
(PID.TID 0000.0001) %MON trcstat_ptracer02_min        =   2.3214644875538394E-05
(PID.TID 0000.0001) %MON trcstat_ptracer02_mean       =   6.0245855223052570E-03
(PID.TID 0000.0001) %MON trcstat_ptracer02_sd         =   4.1770680190485035E-02
(PID.TID 0000.0001) %MON trcstat_ptracer02_del2       =   0.0000000000000000E+00
(PID.TID 0000.0001) %MON trcstat_ptracer03_max        =   2.4784367423253884E-01
(PID.TID 0000.0001) %MON trcstat_ptracer03_min        =   6.6094589231803903E-04
(PID.TID 0000.0001) %MON trcstat_ptracer03_mean       =   1.7257760404237703E-02
(PID.TID 0000.0001) %MON trcstat_ptracer03_sd         =   3.6445875162172250E-02
(PID.TID 0000.0001) %MON trcstat_ptracer03_del2       =   0.0000000000000000E+00
(PID.TID 0000.0001) %MON trcstat_ptracer04_max        =   3.4238122278077348E+01
(PID.TID 0000.0001) %MON trcstat_ptracer04_min        =   1.4636111213117841E+01
(PID.TID 0000.0001) %MON trcstat_ptracer04_mean       =   2.9891568003179131E+01
(PID.TID 0000.0001) %MON trcstat_ptracer04_sd         =   3.8832530503987788E+00
(PID.TID 0000.0001) %MON trcstat_ptracer04_del2       =   0.0000000000000000E+00
(PID.TID 0000.0001) %MON trcstat_ptracer05_max        =   2.3348136936026487E+00
(PID.TID 0000.0001) %MON trcstat_ptracer05_min        =   1.2020316287509061E+00
(PID.TID 0000.0001) %MON trcstat_ptracer05_mean       =   2.0209394064822948E+00
(PID.TID 0000.0001) %MON trcstat_ptracer05_sd         =   2.4247476251714109E-01
(PID.TID 0000.0001) %MON trcstat_ptracer05_del2       =   0.0000000000000000E+00
(PID.TID 0000.0001) %MON trcstat_ptracer06_max        =   9.3254144873451366E+01
(PID.TID 0000.0001) %MON trcstat_ptracer06_min        =   3.4275294659106041E+00
(PID.TID 0000.0001) %MON trcstat_ptracer06_mean       =   6.1182640750052961E+01
(PID.TID 0000.0001) %MON trcstat_ptracer06_sd         =   2.6240909034197546E+01
(PID.TID 0000.0001) %MON trcstat_ptracer06_del2       =   0.0000000000000000E+00
(PID.TID 0000.0001) %MON trcstat_ptracer07_max        =   9.2542771197536846E-04
(PID.TID 0000.0001) %MON trcstat_ptracer07_min        =   2.8160623950327409E-06
(PID.TID 0000.0001) %MON trcstat_ptracer07_mean       =   6.3722587515871345E-04
(PID.TID 0000.0001) %MON trcstat_ptracer07_sd         =   1.9803036812122757E-04
(PID.TID 0000.0001) %MON trcstat_ptracer07_del2       =   0.0000000000000000E+00
(PID.TID 0000.0001) %MON trcstat_ptracer08_max        =   1.2551989122584747E+01
(PID.TID 0000.0001) %MON trcstat_ptracer08_min        =   1.6097129855184807E-06
(PID.TID 0000.0001) %MON trcstat_ptracer08_mean       =   5.3366423338289259E-01
(PID.TID 0000.0001) %MON trcstat_ptracer08_sd         =   1.9379678262605913E+00
(PID.TID 0000.0001) %MON trcstat_ptracer08_del2       =   0.0000000000000000E+00
(PID.TID 0000.0001) %MON trcstat_ptracer09_max        =   1.6737174205313750E+00
(PID.TID 0000.0001) %MON trcstat_ptracer09_min        =   2.3112716614909381E-07
(PID.TID 0000.0001) %MON trcstat_ptracer09_mean       =   7.1161916994093632E-02
(PID.TID 0000.0001) %MON trcstat_ptracer09_sd         =   2.5841915207863048E-01
(PID.TID 0000.0001) %MON trcstat_ptracer09_del2       =   0.0000000000000000E+00
(PID.TID 0000.0001) %MON trcstat_ptracer10_max        =   1.0460171446986970E-01
(PID.TID 0000.0001) %MON trcstat_ptracer10_min        =   1.3938604088542708E-08
(PID.TID 0000.0001) %MON trcstat_ptracer10_mean       =   4.4472697590950449E-03
(PID.TID 0000.0001) %MON trcstat_ptracer10_sd         =   1.6150017201871199E-02
(PID.TID 0000.0001) %MON trcstat_ptracer10_del2       =   0.0000000000000000E+00
(PID.TID 0000.0001) %MON trcstat_ptracer11_max        =   1.0461027305654381E-04
(PID.TID 0000.0001) %MON trcstat_ptracer11_min        =   1.4768244181670281E-11
(PID.TID 0000.0001) %MON trcstat_ptracer11_mean       =   4.4478340517476514E-06
(PID.TID 0000.0001) %MON trcstat_ptracer11_sd         =   1.6151802874022916E-05
(PID.TID 0000.0001) %MON trcstat_ptracer11_del2       =   0.0000000000000000E+00
(PID.TID 0000.0001) %MON trcstat_ptracer12_max        =   1.2579528104645288E+00
(PID.TID 0000.0001) %MON trcstat_ptracer12_min        =   4.6493080002722231E-02
(PID.TID 0000.0001) %MON trcstat_ptracer12_mean       =   4.6811508944142671E-01
(PID.TID 0000.0001) %MON trcstat_ptracer12_sd         =   4.4316081877121200E-01
(PID.TID 0000.0001) %MON trcstat_ptracer12_del2       =   0.0000000000000000E+00
(PID.TID 0000.0001) %MON trcstat_ptracer13_max        =   1.6772722876297896E-01
(PID.TID 0000.0001) %MON trcstat_ptracer13_min        =   6.2011150352511606E-03
(PID.TID 0000.0001) %MON trcstat_ptracer13_mean       =   6.2418523493606430E-02
(PID.TID 0000.0001) %MON trcstat_ptracer13_sd         =   5.9087966360159422E-02
(PID.TID 0000.0001) %MON trcstat_ptracer13_del2       =   0.0000000000000000E+00
(PID.TID 0000.0001) %MON trcstat_ptracer14_max        =   1.0482940353838439E-02
(PID.TID 0000.0001) %MON trcstat_ptracer14_min        =   3.8744248466135119E-04
(PID.TID 0000.0001) %MON trcstat_ptracer14_mean       =   3.9009714029813792E-03
(PID.TID 0000.0001) %MON trcstat_ptracer14_sd         =   3.6930253338589201E-03
(PID.TID 0000.0001) %MON trcstat_ptracer14_del2       =   0.0000000000000000E+00
(PID.TID 0000.0001) %MON trcstat_ptracer15_max        =   5.9307158461585707E-01
(PID.TID 0000.0001) %MON trcstat_ptracer15_min        =   7.9648298201850085E-02
(PID.TID 0000.0001) %MON trcstat_ptracer15_mean       =   3.0103270446258718E-01
(PID.TID 0000.0001) %MON trcstat_ptracer15_sd         =   1.6081882625413121E-01
(PID.TID 0000.0001) %MON trcstat_ptracer15_del2       =   0.0000000000000000E+00
(PID.TID 0000.0001) %MON trcstat_ptracer16_max        =   1.0482964375601190E-05
(PID.TID 0000.0001) %MON trcstat_ptracer16_min        =   3.8769907962402448E-07
(PID.TID 0000.0001) %MON trcstat_ptracer16_mean       =   3.9013425721122209E-06
(PID.TID 0000.0001) %MON trcstat_ptracer16_sd         =   3.6929618057600171E-06
(PID.TID 0000.0001) %MON trcstat_ptracer16_del2       =   0.0000000000000000E+00
(PID.TID 0000.0001) %MON trcstat_ptracer17_max        =   8.2581599467805994E-02
(PID.TID 0000.0001) %MON trcstat_ptracer17_min        =   7.0902497940802129E-03
(PID.TID 0000.0001) %MON trcstat_ptracer17_mean       =   5.5191020749739562E-02
(PID.TID 0000.0001) %MON trcstat_ptracer17_sd         =   1.7302576519749591E-02
(PID.TID 0000.0001) %MON trcstat_ptracer17_del2       =   0.0000000000000000E+00
(PID.TID 0000.0001) %MON trcstat_ptracer18_max        =   2.3510738375300407E+03
(PID.TID 0000.0001) %MON trcstat_ptracer18_min        =   2.2765108188436507E+03
(PID.TID 0000.0001) %MON trcstat_ptracer18_mean       =   2.3233203985428177E+03
(PID.TID 0000.0001) %MON trcstat_ptracer18_sd         =   2.5000041782926939E+01
(PID.TID 0000.0001) %MON trcstat_ptracer18_del2       =   0.0000000000000000E+00
(PID.TID 0000.0001) %MON trcstat_ptracer19_max        =   2.6322279918299131E+01
(PID.TID 0000.0001) %MON trcstat_ptracer19_min        =   4.3194070884673454E+00
(PID.TID 0000.0001) %MON trcstat_ptracer19_mean       =   5.0833243250100280E+00
(PID.TID 0000.0001) %MON trcstat_ptracer19_sd         =   1.4554765124085554E+00
(PID.TID 0000.0001) %MON trcstat_ptracer19_del2       =   0.0000000000000000E+00
(PID.TID 0000.0001) %MON trcstat_ptracer20_max        =   5.4615232131248505E-02
(PID.TID 0000.0001) %MON trcstat_ptracer20_min        =   1.5143461236725620E-05
(PID.TID 0000.0001) %MON trcstat_ptracer20_mean       =   1.8978147181811407E-03
(PID.TID 0000.0001) %MON trcstat_ptracer20_sd         =   9.4324113677758201E-03
(PID.TID 0000.0001) %MON trcstat_ptracer20_del2       =   0.0000000000000000E+00
(PID.TID 0000.0001) %MON trcstat_ptracer21_max        =   5.4615882137141025E-02
(PID.TID 0000.0001) %MON trcstat_ptracer21_min        =   1.5143461756133298E-05
(PID.TID 0000.0001) %MON trcstat_ptracer21_mean       =   1.8978341316631714E-03
(PID.TID 0000.0001) %MON trcstat_ptracer21_sd         =   9.4324051048010858E-03
(PID.TID 0000.0001) %MON trcstat_ptracer21_del2       =   0.0000000000000000E+00
(PID.TID 0000.0001) %MON trcstat_ptracer22_max        =   5.4616420028723259E-02
(PID.TID 0000.0001) %MON trcstat_ptracer22_min        =   1.5143462668874467E-05
(PID.TID 0000.0001) %MON trcstat_ptracer22_mean       =   1.8978502086029021E-03
(PID.TID 0000.0001) %MON trcstat_ptracer22_sd         =   9.4323365552617198E-03
(PID.TID 0000.0001) %MON trcstat_ptracer22_del2       =   0.0000000000000000E+00
(PID.TID 0000.0001) %MON trcstat_ptracer23_max        =   5.4616865037106069E-02
(PID.TID 0000.0001) %MON trcstat_ptracer23_min        =   1.5143464351461883E-05
(PID.TID 0000.0001) %MON trcstat_ptracer23_mean       =   1.8978635260202758E-03
(PID.TID 0000.0001) %MON trcstat_ptracer23_sd         =   9.4321912857151004E-03
(PID.TID 0000.0001) %MON trcstat_ptracer23_del2       =   0.0000000000000000E+00
(PID.TID 0000.0001) %MON trcstat_ptracer24_max        =   5.4617062793288883E-03
(PID.TID 0000.0001) %MON trcstat_ptracer24_min        =   1.5143467612615705E-06
(PID.TID 0000.0001) %MON trcstat_ptracer24_mean       =   1.8978694772698720E-04
(PID.TID 0000.0001) %MON trcstat_ptracer24_sd         =   9.4319198674385212E-04
(PID.TID 0000.0001) %MON trcstat_ptracer24_del2       =   0.0000000000000000E+00
(PID.TID 0000.0001) %MON trcstat_ptracer25_max        =   5.4617062793288901E-02
(PID.TID 0000.0001) %MON trcstat_ptracer25_min        =   1.5143467612615608E-05
(PID.TID 0000.0001) %MON trcstat_ptracer25_mean       =   1.8978694772698714E-03
(PID.TID 0000.0001) %MON trcstat_ptracer25_sd         =   9.4319198674385173E-03
(PID.TID 0000.0001) %MON trcstat_ptracer25_del2       =   0.0000000000000000E+00
(PID.TID 0000.0001) %MON trcstat_ptracer26_max        =   6.6197567246251060E-02
(PID.TID 0000.0001) %MON trcstat_ptracer26_min        =   1.5143479834855758E-05
(PID.TID 0000.0001) %MON trcstat_ptracer26_mean       =   2.0690017627762874E-03
(PID.TID 0000.0001) %MON trcstat_ptracer26_sd         =   1.0407704696399421E-02
(PID.TID 0000.0001) %MON trcstat_ptracer26_del2       =   0.0000000000000000E+00
(PID.TID 0000.0001) %MON trcstat_ptracer27_max        =   5.4616025544756081E-03
(PID.TID 0000.0001) %MON trcstat_ptracer27_min        =   1.5143474260056376E-06
(PID.TID 0000.0001) %MON trcstat_ptracer27_mean       =   1.8978374697726093E-04
(PID.TID 0000.0001) %MON trcstat_ptracer27_sd         =   9.4313224620821555E-04
(PID.TID 0000.0001) %MON trcstat_ptracer27_del2       =   0.0000000000000000E+00
(PID.TID 0000.0001) %MON trcstat_ptracer28_max        =   5.4616025544756114E-02
(PID.TID 0000.0001) %MON trcstat_ptracer28_min        =   1.5143474260056276E-05
(PID.TID 0000.0001) %MON trcstat_ptracer28_mean       =   1.8978374697726087E-03
(PID.TID 0000.0001) %MON trcstat_ptracer28_sd         =   9.4313224620821562E-03
(PID.TID 0000.0001) %MON trcstat_ptracer28_del2       =   0.0000000000000000E+00
(PID.TID 0000.0001) %MON trcstat_ptracer29_max        =   6.5941915408535334E-02
(PID.TID 0000.0001) %MON trcstat_ptracer29_min        =   1.5143495665836452E-05
(PID.TID 0000.0001) %MON trcstat_ptracer29_mean       =   2.0643573301875068E-03
(PID.TID 0000.0001) %MON trcstat_ptracer29_sd         =   1.0379923856568624E-02
(PID.TID 0000.0001) %MON trcstat_ptracer29_del2       =   0.0000000000000000E+00
(PID.TID 0000.0001) %MON trcstat_ptracer30_max        =   5.4616537183340610E-03
(PID.TID 0000.0001) %MON trcstat_ptracer30_min        =   1.5143488486484717E-06
(PID.TID 0000.0001) %MON trcstat_ptracer30_mean       =   1.8978530755832948E-04
(PID.TID 0000.0001) %MON trcstat_ptracer30_sd         =   9.4308145717160636E-04
(PID.TID 0000.0001) %MON trcstat_ptracer30_del2       =   0.0000000000000000E+00
(PID.TID 0000.0001) %MON trcstat_ptracer31_max        =   5.4616537183340613E-02
(PID.TID 0000.0001) %MON trcstat_ptracer31_min        =   1.5143488486484626E-05
(PID.TID 0000.0001) %MON trcstat_ptracer31_mean       =   1.8978530755832950E-03
(PID.TID 0000.0001) %MON trcstat_ptracer31_sd         =   9.4308145717160625E-03
(PID.TID 0000.0001) %MON trcstat_ptracer31_del2       =   0.0000000000000000E+00
(PID.TID 0000.0001) %MON trcstat_ptracer32_max        =   6.4601124011824579E-02
(PID.TID 0000.0001) %MON trcstat_ptracer32_min        =   1.5143529821787849E-05
(PID.TID 0000.0001) %MON trcstat_ptracer32_mean       =   2.0493286354261570E-03
(PID.TID 0000.0001) %MON trcstat_ptracer32_sd         =   1.0289573214537481E-02
(PID.TID 0000.0001) %MON trcstat_ptracer32_del2       =   0.0000000000000000E+00
(PID.TID 0000.0001) %MON trcstat_ptracer33_max        =   5.4616959740540986E-03
(PID.TID 0000.0001) %MON trcstat_ptracer33_min        =   1.5143520341265305E-06
(PID.TID 0000.0001) %MON trcstat_ptracer33_mean       =   1.8978660919611139E-04
(PID.TID 0000.0001) %MON trcstat_ptracer33_sd         =   9.4300579373538852E-04
(PID.TID 0000.0001) %MON trcstat_ptracer33_del2       =   0.0000000000000000E+00
(PID.TID 0000.0001) %MON trcstat_ptracer34_max        =   5.4616959740540989E-02
(PID.TID 0000.0001) %MON trcstat_ptracer34_min        =   1.5143520341265203E-05
(PID.TID 0000.0001) %MON trcstat_ptracer34_mean       =   1.8978660919611143E-03
(PID.TID 0000.0001) %MON trcstat_ptracer34_sd         =   9.4300579373538841E-03
(PID.TID 0000.0001) %MON trcstat_ptracer34_del2       =   0.0000000000000000E+00
(PID.TID 0000.0001) %MON trcstat_ptracer35_max        =   6.3100223871103589E-02
(PID.TID 0000.0001) %MON trcstat_ptracer35_min        =   1.5143607304804583E-05
(PID.TID 0000.0001) %MON trcstat_ptracer35_mean       =   2.0333384617292668E-03
(PID.TID 0000.0001) %MON trcstat_ptracer35_sd         =   1.0193900250212074E-02
(PID.TID 0000.0001) %MON trcstat_ptracer35_del2       =   0.0000000000000000E+00
(PID.TID 0000.0001) %MON trcstat_ptracer36_max        =   5.4617308136263544E-03
(PID.TID 0000.0001) %MON trcstat_ptracer36_min        =   1.5143594604455537E-06
(PID.TID 0000.0001) %MON trcstat_ptracer36_mean       =   1.8978768934007560E-04
(PID.TID 0000.0001) %MON trcstat_ptracer36_sd         =   9.4289619545985352E-04
(PID.TID 0000.0001) %MON trcstat_ptracer36_del2       =   0.0000000000000000E+00
(PID.TID 0000.0001) %MON trcstat_ptracer37_max        =   5.4617308136263545E-02
(PID.TID 0000.0001) %MON trcstat_ptracer37_min        =   1.5143594604455436E-05
(PID.TID 0000.0001) %MON trcstat_ptracer37_mean       =   1.8978768934007565E-03
(PID.TID 0000.0001) %MON trcstat_ptracer37_sd         =   9.4289619545985318E-03
(PID.TID 0000.0001) %MON trcstat_ptracer37_del2       =   0.0000000000000000E+00
(PID.TID 0000.0001) %MON trcstat_ptracer38_max        =   6.1738297024379447E-02
(PID.TID 0000.0001) %MON trcstat_ptracer38_min        =   1.5143791043756859E-05
(PID.TID 0000.0001) %MON trcstat_ptracer38_mean       =   2.0185048274837625E-03
(PID.TID 0000.0001) %MON trcstat_ptracer38_sd         =   1.0105416172116265E-02
(PID.TID 0000.0001) %MON trcstat_ptracer38_del2       =   0.0000000000000000E+00
(PID.TID 0000.0001) %MON trcstat_ptracer39_max        =   5.4617656008290418E-02
(PID.TID 0000.0001) %MON trcstat_ptracer39_min        =   1.5143773833979619E-05
(PID.TID 0000.0001) %MON trcstat_ptracer39_mean       =   1.8978877174698381E-03
(PID.TID 0000.0001) %MON trcstat_ptracer39_sd         =   9.4274099448843733E-03
(PID.TID 0000.0001) %MON trcstat_ptracer39_del2       =   0.0000000000000000E+00
(PID.TID 0000.0001) %MON trcstat_ptracer40_max        =   6.0559470873852793E-02
(PID.TID 0000.0001) %MON trcstat_ptracer40_min        =   1.5144242507459192E-05
(PID.TID 0000.0001) %MON trcstat_ptracer40_mean       =   2.0048747901352743E-03
(PID.TID 0000.0001) %MON trcstat_ptracer40_sd         =   1.0023981726595715E-02
(PID.TID 0000.0001) %MON trcstat_ptracer40_del2       =   0.0000000000000000E+00
(PID.TID 0000.0001) %MON trcstat_ptracer41_max        =   5.9579242597609806E-02
(PID.TID 0000.0001) %MON trcstat_ptracer41_min        =   1.5144420100814447E-05
(PID.TID 0000.0001) %MON trcstat_ptracer41_mean       =   1.9924119459639434E-03
(PID.TID 0000.0001) %MON trcstat_ptracer41_sd         =   9.9489464424299557E-03
(PID.TID 0000.0001) %MON trcstat_ptracer41_del2       =   0.0000000000000000E+00
(PID.TID 0000.0001) %MON trcstat_ptracer42_max        =   5.8686427514080174E-02
(PID.TID 0000.0001) %MON trcstat_ptracer42_min        =   1.5144423612415307E-05
(PID.TID 0000.0001) %MON trcstat_ptracer42_mean       =   1.9811057267703986E-03
(PID.TID 0000.0001) %MON trcstat_ptracer42_sd         =   9.8797299922625051E-03
(PID.TID 0000.0001) %MON trcstat_ptracer42_del2       =   0.0000000000000000E+00
(PID.TID 0000.0001) %MON trcstat_ptracer43_max        =   5.7859416639854964E-02
(PID.TID 0000.0001) %MON trcstat_ptracer43_min        =   1.5144439778361918E-05
(PID.TID 0000.0001) %MON trcstat_ptracer43_mean       =   1.9709056565244075E-03
(PID.TID 0000.0001) %MON trcstat_ptracer43_sd         =   9.8154361617151416E-03
(PID.TID 0000.0001) %MON trcstat_ptracer43_del2       =   0.0000000000000000E+00
(PID.TID 0000.0001) %MON trcstat_ptracer44_max        =   5.5093382485303551E-02
(PID.TID 0000.0001) %MON trcstat_ptracer44_min        =   1.5268097312480214E-05
(PID.TID 0000.0001) %MON trcstat_ptracer44_mean       =   1.9145186598464343E-03
(PID.TID 0000.0001) %MON trcstat_ptracer44_sd         =   9.5162377669187025E-03
(PID.TID 0000.0001) %MON trcstat_ptracer44_del2       =   0.0000000000000000E+00
(PID.TID 0000.0001) %MON trcstat_ptracer45_max        =   5.5093354090496489E-02
(PID.TID 0000.0001) %MON trcstat_ptracer45_min        =   1.5268097312479642E-05
(PID.TID 0000.0001) %MON trcstat_ptracer45_mean       =   1.9145178126523134E-03
(PID.TID 0000.0001) %MON trcstat_ptracer45_sd         =   9.5162331815785341E-03
(PID.TID 0000.0001) %MON trcstat_ptracer45_del2       =   0.0000000000000000E+00
(PID.TID 0000.0001) %MON trcstat_ptracer46_max        =   5.5093330585323286E-02
(PID.TID 0000.0001) %MON trcstat_ptracer46_min        =   1.5268097312479164E-05
(PID.TID 0000.0001) %MON trcstat_ptracer46_mean       =   1.9145171113388096E-03
(PID.TID 0000.0001) %MON trcstat_ptracer46_sd         =   9.5162293857938719E-03
(PID.TID 0000.0001) %MON trcstat_ptracer46_del2       =   0.0000000000000000E+00
(PID.TID 0000.0001) %MON trcstat_ptracer47_max        =   5.5093311127810081E-02
(PID.TID 0000.0001) %MON trcstat_ptracer47_min        =   1.5268097312478771E-05
(PID.TID 0000.0001) %MON trcstat_ptracer47_mean       =   1.9145165307848709E-03
(PID.TID 0000.0001) %MON trcstat_ptracer47_sd         =   9.5162262436003387E-03
(PID.TID 0000.0001) %MON trcstat_ptracer47_del2       =   0.0000000000000000E+00
(PID.TID 0000.0001) %MON trcstat_ptracer48_max        =   5.5093310940851188E-02
(PID.TID 0000.0001) %MON trcstat_ptracer48_min        =   1.5268097312478771E-05
(PID.TID 0000.0001) %MON trcstat_ptracer48_mean       =   1.9145165254241408E-03
(PID.TID 0000.0001) %MON trcstat_ptracer48_sd         =   9.5162262139491683E-03
(PID.TID 0000.0001) %MON trcstat_ptracer48_del2       =   0.0000000000000000E+00
(PID.TID 0000.0001) %MON trcstat_ptracer49_max        =   5.5093492497185981E-02
(PID.TID 0000.0001) %MON trcstat_ptracer49_min        =   1.5268097312482596E-05
(PID.TID 0000.0001) %MON trcstat_ptracer49_mean       =   1.9145221568446153E-03
(PID.TID 0000.0001) %MON trcstat_ptracer49_sd         =   9.5162567241549641E-03
(PID.TID 0000.0001) %MON trcstat_ptracer49_del2       =   0.0000000000000000E+00
(PID.TID 0000.0001) %MON trcstat_ptracer50_max        =   5.5093445103850253E-02
(PID.TID 0000.0001) %MON trcstat_ptracer50_min        =   1.5268097312481614E-05
(PID.TID 0000.0001) %MON trcstat_ptracer50_mean       =   1.9145206993556334E-03
(PID.TID 0000.0001) %MON trcstat_ptracer50_sd         =   9.5162488288727184E-03
(PID.TID 0000.0001) %MON trcstat_ptracer50_del2       =   0.0000000000000000E+00
(PID.TID 0000.0001) %MON trcstat_ptracer51_max        =   5.5093405870300483E-02
(PID.TID 0000.0001) %MON trcstat_ptracer51_min        =   1.5268097312480804E-05
(PID.TID 0000.0001) %MON trcstat_ptracer51_mean       =   1.9145194800222380E-03
(PID.TID 0000.0001) %MON trcstat_ptracer51_sd         =   9.5162422214394252E-03
(PID.TID 0000.0001) %MON trcstat_ptracer51_del2       =   0.0000000000000000E+00
(PID.TID 0000.0001) %MON trcstat_ptracer52_max        =   5.5093373396664667E-02
(PID.TID 0000.0001) %MON trcstat_ptracer52_min        =   1.5268097312480126E-05
(PID.TID 0000.0001) %MON trcstat_ptracer52_mean       =   1.9145184748406666E-03
(PID.TID 0000.0001) %MON trcstat_ptracer52_sd         =   9.5162367751291527E-03
(PID.TID 0000.0001) %MON trcstat_ptracer52_del2       =   0.0000000000000000E+00
(PID.TID 0000.0001) %MON trcstat_ptracer53_max        =   5.5093335019378561E-02
(PID.TID 0000.0001) %MON trcstat_ptracer53_min        =   1.5268097312479316E-05
(PID.TID 0000.0001) %MON trcstat_ptracer53_mean       =   1.9145173004242800E-03
(PID.TID 0000.0001) %MON trcstat_ptracer53_sd         =   9.5162304154661186E-03
(PID.TID 0000.0001) %MON trcstat_ptracer53_del2       =   0.0000000000000000E+00
(PID.TID 0000.0001) %MON trcstat_ptracer54_max        =   5.5093243065010331E-02
(PID.TID 0000.0001) %MON trcstat_ptracer54_min        =   1.5268097312477389E-05
(PID.TID 0000.0001) %MON trcstat_ptracer54_mean       =   1.9145145199339231E-03
(PID.TID 0000.0001) %MON trcstat_ptracer54_sd         =   9.5162153655629633E-03
(PID.TID 0000.0001) %MON trcstat_ptracer54_del2       =   0.0000000000000000E+00
(PID.TID 0000.0001) %MON trcstat_ptracer55_max        =   5.5093238658626094E-02
(PID.TID 0000.0001) %MON trcstat_ptracer55_min        =   1.5268097312477300E-05
(PID.TID 0000.0001) %MON trcstat_ptracer55_mean       =   1.9145143818058142E-03
(PID.TID 0000.0001) %MON trcstat_ptracer55_sd         =   9.5162146162603364E-03
(PID.TID 0000.0001) %MON trcstat_ptracer55_del2       =   0.0000000000000000E+00
(PID.TID 0000.0001) %MON trcstat_ptracer56_max        =   5.5093235013047082E-02
(PID.TID 0000.0001) %MON trcstat_ptracer56_min        =   1.5268097312477226E-05
(PID.TID 0000.0001) %MON trcstat_ptracer56_mean       =   1.9145142683685700E-03
(PID.TID 0000.0001) %MON trcstat_ptracer56_sd         =   9.5162140010256087E-03
(PID.TID 0000.0001) %MON trcstat_ptracer56_del2       =   0.0000000000000000E+00
(PID.TID 0000.0001) %MON trcstat_ptracer57_max        =   5.5093231997273846E-02
(PID.TID 0000.0001) %MON trcstat_ptracer57_min        =   1.5268097312477168E-05
(PID.TID 0000.0001) %MON trcstat_ptracer57_mean       =   1.9145141751382014E-03
(PID.TID 0000.0001) %MON trcstat_ptracer57_sd         =   9.5162134954715639E-03
(PID.TID 0000.0001) %MON trcstat_ptracer57_del2       =   0.0000000000000000E+00
(PID.TID 0000.0001) %MON trcstat_ptracer58_max        =   1.4926451196324846E-02
(PID.TID 0000.0001) %MON trcstat_ptracer58_min        =   3.4165383253632283E-06
(PID.TID 0000.0001) %MON trcstat_ptracer58_mean       =   4.6310722835531337E-04
(PID.TID 0000.0001) %MON trcstat_ptracer58_sd         =   2.2937890571930564E-03
(PID.TID 0000.0001) %MON trcstat_ptracer58_del2       =   0.0000000000000000E+00
(PID.TID 0000.0001) %MON trcstat_ptracer59_max        =   1.2239729813675191E-02
(PID.TID 0000.0001) %MON trcstat_ptracer59_min        =   2.9309614298831916E-06
(PID.TID 0000.0001) %MON trcstat_ptracer59_mean       =   3.8695030661670728E-04
(PID.TID 0000.0001) %MON trcstat_ptracer59_sd         =   1.9164150842861495E-03
(PID.TID 0000.0001) %MON trcstat_ptracer59_del2       =   0.0000000000000000E+00
(PID.TID 0000.0001) %MON trcstat_ptracer60_max        =   1.0301523712164988E-02
(PID.TID 0000.0001) %MON trcstat_ptracer60_min        =   2.5887895262696030E-06
(PID.TID 0000.0001) %MON trcstat_ptracer60_mean       =   3.3350707970967742E-04
(PID.TID 0000.0001) %MON trcstat_ptracer60_sd         =   1.6521283994429220E-03
(PID.TID 0000.0001) %MON trcstat_ptracer60_del2       =   0.0000000000000000E+00
(PID.TID 0000.0001) %MON trcstat_ptracer61_max        =   8.9742387157514727E-03
(PID.TID 0000.0001) %MON trcstat_ptracer61_min        =   2.3521761525324788E-06
(PID.TID 0000.0001) %MON trcstat_ptracer61_mean       =   2.9766508610210973E-04
(PID.TID 0000.0001) %MON trcstat_ptracer61_sd         =   1.4755062671658941E-03
(PID.TID 0000.0001) %MON trcstat_ptracer61_del2       =   0.0000000000000000E+00
(PID.TID 0000.0001) %MON trcstat_ptracer62_max        =   1.8205687597762962E-03
(PID.TID 0000.0001) %MON trcstat_ptracer62_min        =   5.0478225375385691E-07
(PID.TID 0000.0001) %MON trcstat_ptracer62_mean       =   6.3262315908995745E-05
(PID.TID 0000.0001) %MON trcstat_ptracer62_sd         =   3.1439732891461728E-04
(PID.TID 0000.0001) %MON trcstat_ptracer62_del2       =   0.0000000000000000E+00
(PID.TID 0000.0001) %MON trcstat_ptracer63_max        =   8.1104053433251871E-03
(PID.TID 0000.0001) %MON trcstat_ptracer63_min        =   2.1919438835360933E-06
(PID.TID 0000.0001) %MON trcstat_ptracer63_mean       =   2.7470507935798349E-04
(PID.TID 0000.0001) %MON trcstat_ptracer63_sd         =   1.3628759606397374E-03
(PID.TID 0000.0001) %MON trcstat_ptracer63_del2       =   0.0000000000000000E+00
(PID.TID 0000.0001) %MON trcstat_ptracer64_max        =   7.6234557061456917E-03
(PID.TID 0000.0001) %MON trcstat_ptracer64_min        =   2.0862625044492728E-06
(PID.TID 0000.0001) %MON trcstat_ptracer64_mean       =   2.6223716844330023E-04
(PID.TID 0000.0001) %MON trcstat_ptracer64_sd         =   1.3030175131111858E-03
(PID.TID 0000.0001) %MON trcstat_ptracer64_del2       =   0.0000000000000000E+00
(PID.TID 0000.0001) %MON trcstat_ptracer65_max        =   1.8205341848252035E-03
(PID.TID 0000.0001) %MON trcstat_ptracer65_min        =   5.0478247533521263E-07
(PID.TID 0000.0001) %MON trcstat_ptracer65_mean       =   6.3261248992420272E-05
(PID.TID 0000.0001) %MON trcstat_ptracer65_sd         =   3.1437741540273854E-04
(PID.TID 0000.0001) %MON trcstat_ptracer65_del2       =   0.0000000000000000E+00
(PID.TID 0000.0001) %MON trcstat_ptracer66_max        =   7.5770670782855298E-03
(PID.TID 0000.0001) %MON trcstat_ptracer66_min        =   2.0862625044492728E-06
(PID.TID 0000.0001) %MON trcstat_ptracer66_mean       =   2.6070749097648326E-04
(PID.TID 0000.0001) %MON trcstat_ptracer66_sd         =   1.2945807422105222E-03
(PID.TID 0000.0001) %MON trcstat_ptracer66_del2       =   0.0000000000000000E+00
(PID.TID 0000.0001) %MON trcstat_ptracer67_max        =   7.3215122334333192E-03
(PID.TID 0000.0001) %MON trcstat_ptracer67_min        =   2.0191317981979489E-06
(PID.TID 0000.0001) %MON trcstat_ptracer67_mean       =   2.5381027701275078E-04
(PID.TID 0000.0001) %MON trcstat_ptracer67_sd         =   1.2617076140562303E-03
(PID.TID 0000.0001) %MON trcstat_ptracer67_del2       =   0.0000000000000000E+00
(PID.TID 0000.0001) %MON trcstat_ptracer68_max        =   1.8205512394446873E-03
(PID.TID 0000.0001) %MON trcstat_ptracer68_min        =   5.0478294954949060E-07
(PID.TID 0000.0001) %MON trcstat_ptracer68_mean       =   6.3261769186109788E-05
(PID.TID 0000.0001) %MON trcstat_ptracer68_sd         =   3.1436048572386875E-04
(PID.TID 0000.0001) %MON trcstat_ptracer68_del2       =   0.0000000000000000E+00
(PID.TID 0000.0001) %MON trcstat_ptracer69_max        =   7.2822049577787491E-03
(PID.TID 0000.0001) %MON trcstat_ptracer69_min        =   2.0191317981979489E-06
(PID.TID 0000.0001) %MON trcstat_ptracer69_mean       =   2.5304707674443915E-04
(PID.TID 0000.0001) %MON trcstat_ptracer69_sd         =   1.2574419428954750E-03
(PID.TID 0000.0001) %MON trcstat_ptracer69_del2       =   0.0000000000000000E+00
(PID.TID 0000.0001) %MON trcstat_ptracer70_max        =   7.2822612987387984E-03
(PID.TID 0000.0001) %MON trcstat_ptracer70_min        =   2.0191360455020276E-06
(PID.TID 0000.0001) %MON trcstat_ptracer70_mean       =   2.5304881226148178E-04
(PID.TID 0000.0001) %MON trcstat_ptracer70_sd         =   1.2573410583138513E-03
(PID.TID 0000.0001) %MON trcstat_ptracer70_del2       =   0.0000000000000000E+00
(PID.TID 0000.0001) %MON trcstat_ptracer71_max        =   1.8205653246846996E-03
(PID.TID 0000.0001) %MON trcstat_ptracer71_min        =   5.0478401137551029E-07
(PID.TID 0000.0001) %MON trcstat_ptracer71_mean       =   6.3262203065370459E-05
(PID.TID 0000.0001) %MON trcstat_ptracer71_sd         =   3.1433526457846282E-04
(PID.TID 0000.0001) %MON trcstat_ptracer71_del2       =   0.0000000000000000E+00
(PID.TID 0000.0001) %MON trcstat_ptracer72_max        =   7.2822612987387984E-03
(PID.TID 0000.0001) %MON trcstat_ptracer72_min        =   2.0191360455020276E-06
(PID.TID 0000.0001) %MON trcstat_ptracer72_mean       =   2.5304881226148178E-04
(PID.TID 0000.0001) %MON trcstat_ptracer72_sd         =   1.2573410583138513E-03
(PID.TID 0000.0001) %MON trcstat_ptracer72_del2       =   0.0000000000000000E+00
(PID.TID 0000.0001) %MON trcstat_ptracer73_max        =   7.2823077515018052E-03
(PID.TID 0000.0001) %MON trcstat_ptracer73_min        =   2.0191459472607237E-06
(PID.TID 0000.0001) %MON trcstat_ptracer73_mean       =   2.5305025245343419E-04
(PID.TID 0000.0001) %MON trcstat_ptracer73_sd         =   1.2571949272798043E-03
(PID.TID 0000.0001) %MON trcstat_ptracer73_del2       =   0.0000000000000000E+00
(PID.TID 0000.0001) %MON trcstat_ptracer74_max        =   1.8205769378754513E-03
(PID.TID 0000.0001) %MON trcstat_ptracer74_min        =   5.0478648681518442E-07
(PID.TID 0000.0001) %MON trcstat_ptracer74_mean       =   6.3262563113358547E-05
(PID.TID 0000.0001) %MON trcstat_ptracer74_sd         =   3.1429873181995107E-04
(PID.TID 0000.0001) %MON trcstat_ptracer74_del2       =   0.0000000000000000E+00
(PID.TID 0000.0001) %MON trcstat_ptracer75_max        =   7.2823077515018052E-03
(PID.TID 0000.0001) %MON trcstat_ptracer75_min        =   2.0191459472607237E-06
(PID.TID 0000.0001) %MON trcstat_ptracer75_mean       =   2.5305025245343419E-04
(PID.TID 0000.0001) %MON trcstat_ptracer75_sd         =   1.2571949272798043E-03
(PID.TID 0000.0001) %MON trcstat_ptracer75_del2       =   0.0000000000000000E+00
(PID.TID 0000.0001) %MON trcstat_ptracer76_max        =   7.2823541344387236E-03
(PID.TID 0000.0001) %MON trcstat_ptracer76_min        =   2.0191698445306157E-06
(PID.TID 0000.0001) %MON trcstat_ptracer76_mean       =   2.5305169566264512E-04
(PID.TID 0000.0001) %MON trcstat_ptracer76_sd         =   1.2569879926512498E-03
(PID.TID 0000.0001) %MON trcstat_ptracer76_del2       =   0.0000000000000000E+00
(PID.TID 0000.0001) %MON trcstat_ptracer77_max        =   7.2823541344387236E-03
(PID.TID 0000.0001) %MON trcstat_ptracer77_min        =   2.0191698445306157E-06
(PID.TID 0000.0001) %MON trcstat_ptracer77_mean       =   2.5305169566264512E-04
(PID.TID 0000.0001) %MON trcstat_ptracer77_sd         =   1.2569879926512498E-03
(PID.TID 0000.0001) %MON trcstat_ptracer77_del2       =   0.0000000000000000E+00
(PID.TID 0000.0001) %MON trcstat_ptracer78_max        =   7.2824545979675763E-03
(PID.TID 0000.0001) %MON trcstat_ptracer78_min        =   2.0192291959909644E-06
(PID.TID 0000.0001) %MON trcstat_ptracer78_mean       =   2.5305476365577708E-04
(PID.TID 0000.0001) %MON trcstat_ptracer78_sd         =   1.2567051946406984E-03
(PID.TID 0000.0001) %MON trcstat_ptracer78_del2       =   0.0000000000000000E+00
(PID.TID 0000.0001) %MON trcstat_ptracer79_max        =   7.2824666428279615E-03
(PID.TID 0000.0001) %MON trcstat_ptracer79_min        =   2.0192560020783897E-06
(PID.TID 0000.0001) %MON trcstat_ptracer79_mean       =   2.5305521089572403E-04
(PID.TID 0000.0001) %MON trcstat_ptracer79_sd         =   1.2562906294541108E-03
(PID.TID 0000.0001) %MON trcstat_ptracer79_del2       =   0.0000000000000000E+00
(PID.TID 0000.0001) %MON trcstat_ptracer80_max        =   7.2824759104356106E-03
(PID.TID 0000.0001) %MON trcstat_ptracer80_min        =   2.0192564603760825E-06
(PID.TID 0000.0001) %MON trcstat_ptracer80_mean       =   2.5305560359184314E-04
(PID.TID 0000.0001) %MON trcstat_ptracer80_sd         =   1.2557127477733432E-03
(PID.TID 0000.0001) %MON trcstat_ptracer80_del2       =   0.0000000000000000E+00
(PID.TID 0000.0001) %MON trcstat_ptracer81_max        =   7.2824826006928321E-03
(PID.TID 0000.0001) %MON trcstat_ptracer81_min        =   2.0192585968271218E-06
(PID.TID 0000.0001) %MON trcstat_ptracer81_mean       =   2.5305596088268589E-04
(PID.TID 0000.0001) %MON trcstat_ptracer81_sd         =   1.2549094302189733E-03
(PID.TID 0000.0001) %MON trcstat_ptracer81_del2       =   0.0000000000000000E+00
(PID.TID 0000.0001) %MON trcstat_ptracer82_max        =   7.3459971330681337E-03
(PID.TID 0000.0001) %MON trcstat_ptracer82_min        =   2.0357463083348504E-06
(PID.TID 0000.0001) %MON trcstat_ptracer82_mean       =   2.5527490415148707E-04
(PID.TID 0000.0001) %MON trcstat_ptracer82_sd         =   1.2688627411513568E-03
(PID.TID 0000.0001) %MON trcstat_ptracer82_del2       =   0.0000000000000000E+00
(PID.TID 0000.0001) %MON trcstat_ptracer83_max        =   7.3458961585088564E-03
(PID.TID 0000.0001) %MON trcstat_ptracer83_min        =   2.0357463083328913E-06
(PID.TID 0000.0001) %MON trcstat_ptracer83_mean       =   2.5527224905071253E-04
(PID.TID 0000.0001) %MON trcstat_ptracer83_sd         =   1.2688484189010262E-03
(PID.TID 0000.0001) %MON trcstat_ptracer83_del2       =   0.0000000000000000E+00
(PID.TID 0000.0001) %MON trcstat_ptracer84_max        =   7.3458322832982634E-03
(PID.TID 0000.0001) %MON trcstat_ptracer84_min        =   2.0357463083316415E-06
(PID.TID 0000.0001) %MON trcstat_ptracer84_mean       =   2.5527050304122357E-04
(PID.TID 0000.0001) %MON trcstat_ptracer84_sd         =   1.2688389896523000E-03
(PID.TID 0000.0001) %MON trcstat_ptracer84_del2       =   0.0000000000000000E+00
(PID.TID 0000.0001) %MON trcstat_ptracer85_max        =   7.3457900661336962E-03
(PID.TID 0000.0001) %MON trcstat_ptracer85_min        =   2.0357463083308054E-06
(PID.TID 0000.0001) %MON trcstat_ptracer85_mean       =   2.5526930653333281E-04
(PID.TID 0000.0001) %MON trcstat_ptracer85_sd         =   1.2688325218057383E-03
(PID.TID 0000.0001) %MON trcstat_ptracer85_del2       =   0.0000000000000000E+00
(PID.TID 0000.0001) %MON trcstat_ptracer86_max        =   7.3457623446425806E-03
(PID.TID 0000.0001) %MON trcstat_ptracer86_min        =   2.0357463083302502E-06
(PID.TID 0000.0001) %MON trcstat_ptracer86_mean       =   2.5526849868263637E-04
(PID.TID 0000.0001) %MON trcstat_ptracer86_sd         =   1.2688281519531983E-03
(PID.TID 0000.0001) %MON trcstat_ptracer86_del2       =   0.0000000000000000E+00
(PID.TID 0000.0001) %MON trcstat_ptracer87_max        =   7.3457623417406588E-03
(PID.TID 0000.0001) %MON trcstat_ptracer87_min        =   2.0357463083302502E-06
(PID.TID 0000.0001) %MON trcstat_ptracer87_mean       =   2.5526849859580165E-04
(PID.TID 0000.0001) %MON trcstat_ptracer87_sd         =   1.2688281514776076E-03
(PID.TID 0000.0001) %MON trcstat_ptracer87_del2       =   0.0000000000000000E+00
(PID.TID 0000.0001) %MON trcstat_ptracer88_max        =   7.3457623425002604E-03
(PID.TID 0000.0001) %MON trcstat_ptracer88_min        =   2.0357463083302502E-06
(PID.TID 0000.0001) %MON trcstat_ptracer88_mean       =   2.5526849861844477E-04
(PID.TID 0000.0001) %MON trcstat_ptracer88_sd         =   1.2688281516016237E-03
(PID.TID 0000.0001) %MON trcstat_ptracer88_del2       =   0.0000000000000000E+00
(PID.TID 0000.0001) %MON trcstat_ptracer89_max        =   7.3457623431291566E-03
(PID.TID 0000.0001) %MON trcstat_ptracer89_min        =   2.0357463083302502E-06
(PID.TID 0000.0001) %MON trcstat_ptracer89_mean       =   2.5526849863727682E-04
(PID.TID 0000.0001) %MON trcstat_ptracer89_sd         =   1.2688281517047777E-03
(PID.TID 0000.0001) %MON trcstat_ptracer89_del2       =   0.0000000000000000E+00
(PID.TID 0000.0001) %MON trcstat_ptracer90_max        =   7.3457623436497237E-03
(PID.TID 0000.0001) %MON trcstat_ptracer90_min        =   2.0357463083302502E-06
(PID.TID 0000.0001) %MON trcstat_ptracer90_mean       =   2.5526849865283203E-04
(PID.TID 0000.0001) %MON trcstat_ptracer90_sd         =   1.2688281517899786E-03
(PID.TID 0000.0001) %MON trcstat_ptracer90_del2       =   0.0000000000000000E+00
(PID.TID 0000.0001) %MON trcstat_ptracer91_max        =   7.3457623442657631E-03
(PID.TID 0000.0001) %MON trcstat_ptracer91_min        =   2.0357463083302502E-06
(PID.TID 0000.0001) %MON trcstat_ptracer91_mean       =   2.5526849867114215E-04
(PID.TID 0000.0001) %MON trcstat_ptracer91_sd         =   1.2688281518902489E-03
(PID.TID 0000.0001) %MON trcstat_ptracer91_del2       =   0.0000000000000000E+00
(PID.TID 0000.0001) %MON trcstat_ptracer92_max        =   7.3457623457436555E-03
(PID.TID 0000.0001) %MON trcstat_ptracer92_min        =   2.0357463083302502E-06
(PID.TID 0000.0001) %MON trcstat_ptracer92_mean       =   2.5526849871482097E-04
(PID.TID 0000.0001) %MON trcstat_ptracer92_sd         =   1.2688281521294163E-03
(PID.TID 0000.0001) %MON trcstat_ptracer92_del2       =   0.0000000000000000E+00
(PID.TID 0000.0001) %MON trcstat_ptracer93_max        =   7.3457623458137635E-03
(PID.TID 0000.0001) %MON trcstat_ptracer93_min        =   2.0357463083302502E-06
(PID.TID 0000.0001) %MON trcstat_ptracer93_mean       =   2.5526849871692850E-04
(PID.TID 0000.0001) %MON trcstat_ptracer93_sd         =   1.2688281521409657E-03
(PID.TID 0000.0001) %MON trcstat_ptracer93_del2       =   0.0000000000000000E+00
(PID.TID 0000.0001) %MON trcstat_ptracer94_max        =   7.3457623458717831E-03
(PID.TID 0000.0001) %MON trcstat_ptracer94_min        =   2.0357463083302502E-06
(PID.TID 0000.0001) %MON trcstat_ptracer94_mean       =   2.5526849871866669E-04
(PID.TID 0000.0001) %MON trcstat_ptracer94_sd         =   1.2688281521504895E-03
(PID.TID 0000.0001) %MON trcstat_ptracer94_del2       =   0.0000000000000000E+00
(PID.TID 0000.0001) %MON trcstat_ptracer95_max        =   7.3457623459197985E-03
(PID.TID 0000.0001) %MON trcstat_ptracer95_min        =   2.0357463083302502E-06
(PID.TID 0000.0001) %MON trcstat_ptracer95_mean       =   2.5526849872010082E-04
(PID.TID 0000.0001) %MON trcstat_ptracer95_sd         =   1.2688281521583470E-03
(PID.TID 0000.0001) %MON trcstat_ptracer95_del2       =   0.0000000000000000E+00
(PID.TID 0000.0001) %MON trcstat_ptracer96_max        =   5.4555892707675079E-04
(PID.TID 0000.0001) %MON trcstat_ptracer96_min        =   1.5127205933231369E-07
(PID.TID 0000.0001) %MON trcstat_ptracer96_mean       =   1.8957532034214609E-05
(PID.TID 0000.0001) %MON trcstat_ptracer96_sd         =   9.4221584217788721E-05
(PID.TID 0000.0001) %MON trcstat_ptracer96_del2       =   0.0000000000000000E+00
(PID.TID 0000.0001) %MON trcstat_ptracer97_max        =   5.4125038476969469E-04
(PID.TID 0000.0001) %MON trcstat_ptracer97_min        =   1.5008378178507170E-07
(PID.TID 0000.0001) %MON trcstat_ptracer97_mean       =   1.8807800768081094E-05
(PID.TID 0000.0001) %MON trcstat_ptracer97_sd         =   9.3476084528150901E-05
(PID.TID 0000.0001) %MON trcstat_ptracer97_del2       =   0.0000000000000000E+00
(PID.TID 0000.0001) %MON trcstat_ptracer98_max        =   5.3222093460254815E-04
(PID.TID 0000.0001) %MON trcstat_ptracer98_min        =   1.4759136464673259E-07
(PID.TID 0000.0001) %MON trcstat_ptracer98_mean       =   1.8494036709712177E-05
(PID.TID 0000.0001) %MON trcstat_ptracer98_sd         =   9.1914732929401362E-05
(PID.TID 0000.0001) %MON trcstat_ptracer98_del2       =   0.0000000000000000E+00
(PID.TID 0000.0001) %MON trcstat_ptracer99_max        =   5.2031236625608838E-04
(PID.TID 0000.0001) %MON trcstat_ptracer99_min        =   1.4430213754698125E-07
(PID.TID 0000.0001) %MON trcstat_ptracer99_mean       =   1.8080232665958954E-05
(PID.TID 0000.0001) %MON trcstat_ptracer99_sd         =   8.9855586756917372E-05
(PID.TID 0000.0001) %MON trcstat_ptracer99_del2       =   0.0000000000000000E+00
(PID.TID 0000.0001) %MON trcstat_ptracer0a_max        =   5.0776954838805438E-05
(PID.TID 0000.0001) %MON trcstat_ptracer0a_min        =   1.4083645267723485E-08
(PID.TID 0000.0001) %MON trcstat_ptracer0a_mean       =   1.7644398217444987E-06
(PID.TID 0000.0001) %MON trcstat_ptracer0a_sd         =   8.7686259034442195E-06
(PID.TID 0000.0001) %MON trcstat_ptracer0a_del2       =   0.0000000000000000E+00
(PID.TID 0000.0001) %MON trcstat_ptracer0b_max        =   5.0776954838805440E-04
(PID.TID 0000.0001) %MON trcstat_ptracer0b_min        =   1.4083645267723397E-07
(PID.TID 0000.0001) %MON trcstat_ptracer0b_mean       =   1.7644398217444980E-05
(PID.TID 0000.0001) %MON trcstat_ptracer0b_sd         =   8.7686259034442212E-05
(PID.TID 0000.0001) %MON trcstat_ptracer0b_del2       =   0.0000000000000000E+00
(PID.TID 0000.0001) %MON trcstat_ptracer0c_max        =   5.1644782312715125E-04
(PID.TID 0000.0001) %MON trcstat_ptracer0c_min        =   1.3762202032177038E-07
(PID.TID 0000.0001) %MON trcstat_ptracer0c_mean       =   1.7565819381207340E-05
(PID.TID 0000.0001) %MON trcstat_ptracer0c_sd         =   8.7492468136013619E-05
(PID.TID 0000.0001) %MON trcstat_ptracer0c_del2       =   0.0000000000000000E+00
(PID.TID 0000.0001) %MON trcstat_ptracer0d_max        =   4.9613116992421597E-05
(PID.TID 0000.0001) %MON trcstat_ptracer0d_min        =   1.3762200893463985E-08
(PID.TID 0000.0001) %MON trcstat_ptracer0d_mean       =   1.7240032078882051E-06
(PID.TID 0000.0001) %MON trcstat_ptracer0d_sd         =   8.5672307608477890E-06
(PID.TID 0000.0001) %MON trcstat_ptracer0d_del2       =   0.0000000000000000E+00
(PID.TID 0000.0001) %MON trcstat_ptracer0e_max        =   4.9613116992421589E-04
(PID.TID 0000.0001) %MON trcstat_ptracer0e_min        =   1.3762200893463888E-07
(PID.TID 0000.0001) %MON trcstat_ptracer0e_mean       =   1.7240032078882049E-05
(PID.TID 0000.0001) %MON trcstat_ptracer0e_sd         =   8.5672307608477904E-05
(PID.TID 0000.0001) %MON trcstat_ptracer0e_del2       =   0.0000000000000000E+00
(PID.TID 0000.0001) %MON trcstat_ptracer0f_max        =   5.0031317184021768E-04
(PID.TID 0000.0001) %MON trcstat_ptracer0f_min        =   1.3486717726363860E-07
(PID.TID 0000.0001) %MON trcstat_ptracer0f_mean       =   1.7125439220185598E-05
(PID.TID 0000.0001) %MON trcstat_ptracer0f_sd         =   8.5237692123475608E-05
(PID.TID 0000.0001) %MON trcstat_ptracer0f_del2       =   0.0000000000000000E+00
(PID.TID 0000.0001) %MON trcstat_ptracer0g_max        =   4.8617560645143414E-05
(PID.TID 0000.0001) %MON trcstat_ptracer0g_min        =   1.3486716688329923E-08
(PID.TID 0000.0001) %MON trcstat_ptracer0g_mean       =   1.6894081193163918E-06
(PID.TID 0000.0001) %MON trcstat_ptracer0g_sd         =   8.3947633637018784E-06
(PID.TID 0000.0001) %MON trcstat_ptracer0g_del2       =   0.0000000000000000E+00
(PID.TID 0000.0001) %MON trcstat_ptracer0h_max        =   4.8617560645143414E-04
(PID.TID 0000.0001) %MON trcstat_ptracer0h_min        =   1.3486716688329835E-07
(PID.TID 0000.0001) %MON trcstat_ptracer0h_mean       =   1.6894081193163918E-05
(PID.TID 0000.0001) %MON trcstat_ptracer0h_sd         =   8.3947633637018764E-05
(PID.TID 0000.0001) %MON trcstat_ptracer0h_del2       =   0.0000000000000000E+00
(PID.TID 0000.0001) %MON trcstat_ptracer0i_max        =   4.8662860133217233E-04
(PID.TID 0000.0001) %MON trcstat_ptracer0i_min        =   1.3262620969273314E-07
(PID.TID 0000.0001) %MON trcstat_ptracer0i_mean       =   1.6763361394527655E-05
(PID.TID 0000.0001) %MON trcstat_ptracer0i_sd         =   8.3379955062339709E-05
(PID.TID 0000.0001) %MON trcstat_ptracer0i_del2       =   0.0000000000000000E+00
(PID.TID 0000.0001) %MON trcstat_ptracer0j_max        =   4.7808381673377291E-05
(PID.TID 0000.0001) %MON trcstat_ptracer0j_min        =   1.3262620011034770E-08
(PID.TID 0000.0001) %MON trcstat_ptracer0j_mean       =   1.6612894713691659E-06
(PID.TID 0000.0001) %MON trcstat_ptracer0j_sd         =   8.2543043156396627E-06
(PID.TID 0000.0001) %MON trcstat_ptracer0j_del2       =   0.0000000000000000E+00
(PID.TID 0000.0001) %MON trcstat_ptracer0k_max        =   4.7808381673377287E-04
(PID.TID 0000.0001) %MON trcstat_ptracer0k_min        =   1.3262620011034682E-07
(PID.TID 0000.0001) %MON trcstat_ptracer0k_mean       =   1.6612894713691660E-05
(PID.TID 0000.0001) %MON trcstat_ptracer0k_sd         =   8.2543043156396627E-05
(PID.TID 0000.0001) %MON trcstat_ptracer0k_del2       =   0.0000000000000000E+00
(PID.TID 0000.0001) %MON trcstat_ptracer0l_max        =   4.7649174433054740E-04
(PID.TID 0000.0001) %MON trcstat_ptracer0l_min        =   1.3086851681350185E-07
(PID.TID 0000.0001) %MON trcstat_ptracer0l_mean       =   1.6488320583396637E-05
(PID.TID 0000.0001) %MON trcstat_ptracer0l_sd         =   8.1969821501060470E-05
(PID.TID 0000.0001) %MON trcstat_ptracer0l_del2       =   0.0000000000000000E+00
(PID.TID 0000.0001) %MON trcstat_ptracer0m_max        =   4.7174445269691777E-05
(PID.TID 0000.0001) %MON trcstat_ptracer0m_min        =   1.3086850791263858E-08
(PID.TID 0000.0001) %MON trcstat_ptracer0m_mean       =   1.6392602142558493E-06
(PID.TID 0000.0001) %MON trcstat_ptracer0m_sd         =   8.1438524449188045E-06
(PID.TID 0000.0001) %MON trcstat_ptracer0m_del2       =   0.0000000000000000E+00
(PID.TID 0000.0001) %MON trcstat_ptracer0n_max        =   4.7174445269691773E-04
(PID.TID 0000.0001) %MON trcstat_ptracer0n_min        =   1.3086850791263765E-07
(PID.TID 0000.0001) %MON trcstat_ptracer0n_mean       =   1.6392602142558486E-05
(PID.TID 0000.0001) %MON trcstat_ptracer0n_sd         =   8.1438524449188032E-05
(PID.TID 0000.0001) %MON trcstat_ptracer0n_del2       =   0.0000000000000000E+00
(PID.TID 0000.0001) %MON trcstat_ptracer0o_max        =   4.6937080641551996E-04
(PID.TID 0000.0001) %MON trcstat_ptracer0o_min        =   1.2952727580846199E-07
(PID.TID 0000.0001) %MON trcstat_ptracer0o_mean       =   1.6284433899262726E-05
(PID.TID 0000.0001) %MON trcstat_ptracer0o_sd         =   8.0921664471326967E-05
(PID.TID 0000.0001) %MON trcstat_ptracer0o_del2       =   0.0000000000000000E+00
(PID.TID 0000.0001) %MON trcstat_ptracer0p_max        =   4.6691440161046350E-04
(PID.TID 0000.0001) %MON trcstat_ptracer0p_min        =   1.2952726752354591E-07
(PID.TID 0000.0001) %MON trcstat_ptracer0p_mean       =   1.6224752883254698E-05
(PID.TID 0000.0001) %MON trcstat_ptracer0p_sd         =   8.0591001583562018E-05
(PID.TID 0000.0001) %MON trcstat_ptracer0p_del2       =   0.0000000000000000E+00
(PID.TID 0000.0001) %MON trcstat_ptracer0q_max        =   4.6461484723229975E-04
(PID.TID 0000.0001) %MON trcstat_ptracer0q_min        =   1.2852784287218417E-07
(PID.TID 0000.0001) %MON trcstat_ptracer0q_mean       =   1.6136299457269209E-05
(PID.TID 0000.0001) %MON trcstat_ptracer0q_sd         =   8.0153386875243948E-05
(PID.TID 0000.0001) %MON trcstat_ptracer0q_del2       =   0.0000000000000000E+00
(PID.TID 0000.0001) %MON trcstat_ptracer0r_max        =   4.6142224665751181E-04
(PID.TID 0000.0001) %MON trcstat_ptracer0r_min        =   1.2780265967605906E-07
(PID.TID 0000.0001) %MON trcstat_ptracer0r_mean       =   1.6030452373603116E-05
(PID.TID 0000.0001) %MON trcstat_ptracer0r_sd         =   7.9593122533482840E-05
(PID.TID 0000.0001) %MON trcstat_ptracer0r_del2       =   0.0000000000000000E+00
(PID.TID 0000.0001) %MON trcstat_ptracer0s_max        =   4.5918998632428731E-04
(PID.TID 0000.0001) %MON trcstat_ptracer0s_min        =   1.2727539063420643E-07
(PID.TID 0000.0001) %MON trcstat_ptracer0s_mean       =   1.5956386620853189E-05
(PID.TID 0000.0001) %MON trcstat_ptracer0s_sd         =   7.9184023525065853E-05
(PID.TID 0000.0001) %MON trcstat_ptracer0s_del2       =   0.0000000000000000E+00
(PID.TID 0000.0001) %MON trcstat_ptracer0t_max        =   4.5769166389508960E-04
(PID.TID 0000.0001) %MON trcstat_ptracer0t_min        =   1.2690420624257485E-07
(PID.TID 0000.0001) %MON trcstat_ptracer0t_mean       =   1.5905705784189821E-05
(PID.TID 0000.0001) %MON trcstat_ptracer0t_sd         =   7.8879213933106380E-05
(PID.TID 0000.0001) %MON trcstat_ptracer0t_del2       =   0.0000000000000000E+00
(PID.TID 0000.0001) %MON trcstat_ptracer0u_max        =   4.5911386358284324E-04
(PID.TID 0000.0001) %MON trcstat_ptracer0u_min        =   1.2723414427071571E-07
(PID.TID 0000.0001) %MON trcstat_ptracer0u_mean       =   1.5954392062471352E-05
(PID.TID 0000.0001) %MON trcstat_ptracer0u_sd         =   7.9302359697767442E-05
(PID.TID 0000.0001) %MON trcstat_ptracer0u_del2       =   0.0000000000000000E+00
(PID.TID 0000.0001) %MON trcstat_ptracer0v_max        =   4.5911316395052783E-04
(PID.TID 0000.0001) %MON trcstat_ptracer0v_min        =   1.2723414427070160E-07
(PID.TID 0000.0001) %MON trcstat_ptracer0v_mean       =   1.5954371188222157E-05
(PID.TID 0000.0001) %MON trcstat_ptracer0v_sd         =   7.9302246718268896E-05
(PID.TID 0000.0001) %MON trcstat_ptracer0v_del2       =   0.0000000000000000E+00
(PID.TID 0000.0001) %MON trcstat_ptracer0w_max        =   4.5911259536883525E-04
(PID.TID 0000.0001) %MON trcstat_ptracer0w_min        =   1.2723414427069014E-07
(PID.TID 0000.0001) %MON trcstat_ptracer0w_mean       =   1.5954354223955733E-05
(PID.TID 0000.0001) %MON trcstat_ptracer0w_sd         =   7.9302154901022057E-05
(PID.TID 0000.0001) %MON trcstat_ptracer0w_del2       =   0.0000000000000000E+00
(PID.TID 0000.0001) %MON trcstat_ptracer0x_max        =   4.5911213739552878E-04
(PID.TID 0000.0001) %MON trcstat_ptracer0x_min        =   1.2723414427068082E-07
(PID.TID 0000.0001) %MON trcstat_ptracer0x_mean       =   1.5954340559706473E-05
(PID.TID 0000.0001) %MON trcstat_ptracer0x_sd         =   7.9302080944656611E-05
(PID.TID 0000.0001) %MON trcstat_ptracer0x_del2       =   0.0000000000000000E+00
(PID.TID 0000.0001) %MON trcstat_ptracer0y_max        =   4.5911210309742130E-04
(PID.TID 0000.0001) %MON trcstat_ptracer0y_min        =   1.2723414427068032E-07
(PID.TID 0000.0001) %MON trcstat_ptracer0y_mean       =   1.5954339541011891E-05
(PID.TID 0000.0001) %MON trcstat_ptracer0y_sd         =   7.9302075417736679E-05
(PID.TID 0000.0001) %MON trcstat_ptracer0y_del2       =   0.0000000000000000E+00
(PID.TID 0000.0001) %MON trcstat_ptracer0z_max        =   4.5911580572843971E-04
(PID.TID 0000.0001) %MON trcstat_ptracer0z_min        =   1.2723414427075896E-07
(PID.TID 0000.0001) %MON trcstat_ptracer0z_mean       =   1.5954452447833522E-05
(PID.TID 0000.0001) %MON trcstat_ptracer0z_sd         =   7.9302686672322418E-05
(PID.TID 0000.0001) %MON trcstat_ptracer0z_del2       =   0.0000000000000000E+00
(PID.TID 0000.0001) %MON trcstat_ptracer0A_max        =   4.5911478395035526E-04
(PID.TID 0000.0001) %MON trcstat_ptracer0A_min        =   1.2723414427073760E-07
(PID.TID 0000.0001) %MON trcstat_ptracer0A_mean       =   1.5954421389559002E-05
(PID.TID 0000.0001) %MON trcstat_ptracer0A_sd         =   7.9302518512617182E-05
(PID.TID 0000.0001) %MON trcstat_ptracer0A_del2       =   0.0000000000000000E+00
(PID.TID 0000.0001) %MON trcstat_ptracer0B_max        =   4.5911395543225299E-04
(PID.TID 0000.0001) %MON trcstat_ptracer0B_min        =   1.2723414427072029E-07
(PID.TID 0000.0001) %MON trcstat_ptracer0B_mean       =   1.5954396103361181E-05
(PID.TID 0000.0001) %MON trcstat_ptracer0B_sd         =   7.9302381587474774E-05
(PID.TID 0000.0001) %MON trcstat_ptracer0B_del2       =   0.0000000000000000E+00
(PID.TID 0000.0001) %MON trcstat_ptracer0C_max        =   4.5911328083540705E-04
(PID.TID 0000.0001) %MON trcstat_ptracer0C_min        =   1.2723414427070618E-07
(PID.TID 0000.0001) %MON trcstat_ptracer0C_mean       =   1.5954375573193415E-05
(PID.TID 0000.0001) %MON trcstat_ptracer0C_sd         =   7.9302270426619744E-05
(PID.TID 0000.0001) %MON trcstat_ptracer0C_del2       =   0.0000000000000000E+00
(PID.TID 0000.0001) %MON trcstat_ptracer0D_max        =   4.5911249852136331E-04
(PID.TID 0000.0001) %MON trcstat_ptracer0D_min        =   1.2723414427068966E-07
(PID.TID 0000.0001) %MON trcstat_ptracer0D_mean       =   1.5954351912408648E-05
(PID.TID 0000.0001) %MON trcstat_ptracer0D_sd         =   7.9302142364081306E-05
(PID.TID 0000.0001) %MON trcstat_ptracer0D_del2       =   0.0000000000000000E+00
(PID.TID 0000.0001) %MON trcstat_ptracer0E_max        =   4.5911065247386713E-04
(PID.TID 0000.0001) %MON trcstat_ptracer0E_min        =   1.2723414427065075E-07
(PID.TID 0000.0001) %MON trcstat_ptracer0E_mean       =   1.5954296445865004E-05
(PID.TID 0000.0001) %MON trcstat_ptracer0E_sd         =   7.9301842234886236E-05
(PID.TID 0000.0001) %MON trcstat_ptracer0E_del2       =   0.0000000000000000E+00
(PID.TID 0000.0001) %MON trcstat_ptracer0F_max        =   4.5911056420463672E-04
(PID.TID 0000.0001) %MON trcstat_ptracer0F_min        =   1.2723414427064898E-07
(PID.TID 0000.0001) %MON trcstat_ptracer0F_mean       =   1.5954293746031829E-05
(PID.TID 0000.0001) %MON trcstat_ptracer0F_sd         =   7.9301827604742907E-05
(PID.TID 0000.0001) %MON trcstat_ptracer0F_del2       =   0.0000000000000000E+00
(PID.TID 0000.0001) %MON trcstat_ptracer0G_max        =   4.5911049155712393E-04
(PID.TID 0000.0001) %MON trcstat_ptracer0G_min        =   1.2723414427064755E-07
(PID.TID 0000.0001) %MON trcstat_ptracer0G_mean       =   1.5954291532163455E-05
(PID.TID 0000.0001) %MON trcstat_ptracer0G_sd         =   7.9301815609137674E-05
(PID.TID 0000.0001) %MON trcstat_ptracer0G_del2       =   0.0000000000000000E+00
(PID.TID 0000.0001) %MON trcstat_ptracer0H_max        =   4.5911043168029783E-04
(PID.TID 0000.0001) %MON trcstat_ptracer0H_min        =   1.2723414427064633E-07
(PID.TID 0000.0001) %MON trcstat_ptracer0H_mean       =   1.5954289713076696E-05
(PID.TID 0000.0001) %MON trcstat_ptracer0H_sd         =   7.9301805753237845E-05
(PID.TID 0000.0001) %MON trcstat_ptracer0H_del2       =   0.0000000000000000E+00
(PID.TID 0000.0001) %MON trcstat_ptracer0I_max        =   6.2497256884588994E-07
(PID.TID 0000.0001) %MON trcstat_ptracer0I_min        =   1.7524815003611532E-10
(PID.TID 0000.0001) %MON trcstat_ptracer0I_mean       =   1.8882574007555148E-08
(PID.TID 0000.0001) %MON trcstat_ptracer0I_sd         =   9.2773873453597350E-08
(PID.TID 0000.0001) %MON trcstat_ptracer0I_del2       =   0.0000000000000000E+00
(PID.TID 0000.0001) %MON trcstat_ptracer0J_max        =   5.7146723156370909E-07
(PID.TID 0000.0001) %MON trcstat_ptracer0J_min        =   1.6021560369792105E-10
(PID.TID 0000.0001) %MON trcstat_ptracer0J_mean       =   1.7849432442664142E-08
(PID.TID 0000.0001) %MON trcstat_ptracer0J_sd         =   8.7768094022784080E-08
(PID.TID 0000.0001) %MON trcstat_ptracer0J_del2       =   0.0000000000000000E+00
(PID.TID 0000.0001) %MON trcstat_ptracer0K_max        =   5.3327529978661971E-07
(PID.TID 0000.0001) %MON trcstat_ptracer0K_min        =   1.4939212638381616E-10
(PID.TID 0000.0001) %MON trcstat_ptracer0K_mean       =   1.7146152478289789E-08
(PID.TID 0000.0001) %MON trcstat_ptracer0K_sd         =   8.4456975306953717E-08
(PID.TID 0000.0001) %MON trcstat_ptracer0K_del2       =   0.0000000000000000E+00
(PID.TID 0000.0001) %MON trcstat_ptracer0L_max        =   5.0647415666132499E-07
(PID.TID 0000.0001) %MON trcstat_ptracer0L_min        =   1.4170403841407230E-10
(PID.TID 0000.0001) %MON trcstat_ptracer0L_mean       =   1.6672132375136223E-08
(PID.TID 0000.0001) %MON trcstat_ptracer0L_sd         =   8.2288853789177327E-08
(PID.TID 0000.0001) %MON trcstat_ptracer0L_del2       =   0.0000000000000000E+00
(PID.TID 0000.0001) %MON trcstat_ptracer0M_max        =   1.8418968173011137E-07
(PID.TID 0000.0001) %MON trcstat_ptracer0M_min        =   5.1138521408503265E-11
(PID.TID 0000.0001) %MON trcstat_ptracer0M_mean       =   6.3614746828615297E-09
(PID.TID 0000.0001) %MON trcstat_ptracer0M_sd         =   3.1586417061028479E-08
(PID.TID 0000.0001) %MON trcstat_ptracer0M_del2       =   0.0000000000000000E+00
(PID.TID 0000.0001) %MON trcstat_ptracer0N_max        =   4.8805500633726224E-07
(PID.TID 0000.0001) %MON trcstat_ptracer0N_min        =   1.3633582394705471E-10
(PID.TID 0000.0001) %MON trcstat_ptracer0N_mean       =   1.6356812175236084E-08
(PID.TID 0000.0001) %MON trcstat_ptracer0N_sd         =   8.0884701762458653E-08
(PID.TID 0000.0001) %MON trcstat_ptracer0N_del2       =   0.0000000000000000E+00
(PID.TID 0000.0001) %MON trcstat_ptracer0O_max        =   4.7588862393147058E-07
(PID.TID 0000.0001) %MON trcstat_ptracer0O_min        =   1.3266643456783451E-10
(PID.TID 0000.0001) %MON trcstat_ptracer0O_mean       =   1.6153341417497741E-08
(PID.TID 0000.0001) %MON trcstat_ptracer0O_sd         =   8.0001625816898486E-08
(PID.TID 0000.0001) %MON trcstat_ptracer0O_del2       =   0.0000000000000000E+00
(PID.TID 0000.0001) %MON trcstat_ptracer0P_max        =   1.8338226151399017E-07
(PID.TID 0000.0001) %MON trcstat_ptracer0P_min        =   5.0899602908450322E-11
(PID.TID 0000.0001) %MON trcstat_ptracer0P_mean       =   6.3479408536920753E-09
(PID.TID 0000.0001) %MON trcstat_ptracer0P_sd         =   3.1527477055838164E-08
(PID.TID 0000.0001) %MON trcstat_ptracer0P_del2       =   0.0000000000000000E+00
(PID.TID 0000.0001) %MON trcstat_ptracer0Q_max        =   4.7569871858968413E-07
(PID.TID 0000.0001) %MON trcstat_ptracer0Q_min        =   1.3266643352021280E-10
(PID.TID 0000.0001) %MON trcstat_ptracer0Q_mean       =   1.6150342977159296E-08
(PID.TID 0000.0001) %MON trcstat_ptracer0Q_sd         =   7.9985682663006447E-08
(PID.TID 0000.0001) %MON trcstat_ptracer0Q_del2       =   0.0000000000000000E+00
(PID.TID 0000.0001) %MON trcstat_ptracer0R_max        =   4.6776989575983070E-07
(PID.TID 0000.0001) %MON trcstat_ptracer0R_min        =   1.3022094799876858E-10
(PID.TID 0000.0001) %MON trcstat_ptracer0R_mean       =   1.6020119355887886E-08
(PID.TID 0000.0001) %MON trcstat_ptracer0R_sd         =   7.9430123907475220E-08
(PID.TID 0000.0001) %MON trcstat_ptracer0R_del2       =   0.0000000000000000E+00
(PID.TID 0000.0001) %MON trcstat_ptracer0S_max        =   1.8285999233670675E-07
(PID.TID 0000.0001) %MON trcstat_ptracer0S_min        =   5.0740401639584848E-11
(PID.TID 0000.0001) %MON trcstat_ptracer0S_mean       =   6.3393946442223302E-09
(PID.TID 0000.0001) %MON trcstat_ptracer0S_sd         =   3.1489835671586453E-08
(PID.TID 0000.0001) %MON trcstat_ptracer0S_del2       =   0.0000000000000000E+00
(PID.TID 0000.0001) %MON trcstat_ptracer0T_max        =   4.6765607959524971E-07
(PID.TID 0000.0001) %MON trcstat_ptracer0T_min        =   1.3022094718713548E-10
(PID.TID 0000.0001) %MON trcstat_ptracer0T_mean       =   1.6018428796987454E-08
(PID.TID 0000.0001) %MON trcstat_ptracer0T_sd         =   7.9421198916137691E-08
(PID.TID 0000.0001) %MON trcstat_ptracer0T_del2       =   0.0000000000000000E+00
(PID.TID 0000.0001) %MON trcstat_ptracer0U_max        =   4.6263603154002641E-07
(PID.TID 0000.0001) %MON trcstat_ptracer0U_min        =   1.2863680507388400E-10
(PID.TID 0000.0001) %MON trcstat_ptracer0U_mean       =   1.5936858889123262E-08
(PID.TID 0000.0001) %MON trcstat_ptracer0U_sd         =   7.9075649283967620E-08
(PID.TID 0000.0001) %MON trcstat_ptracer0U_del2       =   0.0000000000000000E+00
(PID.TID 0000.0001) %MON trcstat_ptracer0V_max        =   1.8252997778914500E-07
(PID.TID 0000.0001) %MON trcstat_ptracer0V_min        =   5.0637337055711054E-11
(PID.TID 0000.0001) %MON trcstat_ptracer0V_mean       =   6.3340592750857705E-09
(PID.TID 0000.0001) %MON trcstat_ptracer0V_sd         =   3.1465118354578979E-08
(PID.TID 0000.0001) %MON trcstat_ptracer0V_del2       =   0.0000000000000000E+00
(PID.TID 0000.0001) %MON trcstat_ptracer0W_max        =   4.6256951546898449E-07
(PID.TID 0000.0001) %MON trcstat_ptracer0W_min        =   1.2863680444419157E-10
(PID.TID 0000.0001) %MON trcstat_ptracer0W_mean       =   1.5935934926198016E-08
(PID.TID 0000.0001) %MON trcstat_ptracer0W_sd         =   7.9070808555438691E-08
(PID.TID 0000.0001) %MON trcstat_ptracer0W_del2       =   0.0000000000000000E+00
(PID.TID 0000.0001) %MON trcstat_ptracer0X_max        =   4.5948516594850933E-07
(PID.TID 0000.0001) %MON trcstat_ptracer0X_min        =   1.2764108657695422E-10
(PID.TID 0000.0001) %MON trcstat_ptracer0X_mean       =   1.5886104668957172E-08
(PID.TID 0000.0001) %MON trcstat_ptracer0X_sd         =   7.8857466102400260E-08
(PID.TID 0000.0001) %MON trcstat_ptracer0X_del2       =   0.0000000000000000E+00
(PID.TID 0000.0001) %MON trcstat_ptracer0Y_max        =   1.8232768367748178E-07
(PID.TID 0000.0001) %MON trcstat_ptracer0Y_min        =   5.0572706827631715E-11
(PID.TID 0000.0001) %MON trcstat_ptracer0Y_mean       =   6.3308121905995169E-09
(PID.TID 0000.0001) %MON trcstat_ptracer0Y_sd         =   3.1448076990386745E-08
(PID.TID 0000.0001) %MON trcstat_ptracer0Y_del2       =   0.0000000000000000E+00
(PID.TID 0000.0001) %MON trcstat_ptracer0Z_max        =   4.5944726350697598E-07
(PID.TID 0000.0001) %MON trcstat_ptracer0Z_min        =   1.2764108609053461E-10
(PID.TID 0000.0001) %MON trcstat_ptracer0Z_mean       =   1.5885606067031598E-08
(PID.TID 0000.0001) %MON trcstat_ptracer0Z_sd         =   7.8854871939078319E-08
(PID.TID 0000.0001) %MON trcstat_ptracer0Z_del2       =   0.0000000000000000E+00
(PID.TID 0000.0001) %MON trcstat_ptracer1a_max        =   4.5760572131382531E-07
(PID.TID 0000.0001) %MON trcstat_ptracer1a_min        =   1.2703422622856582E-10
(PID.TID 0000.0001) %MON trcstat_ptracer1a_mean       =   1.5855922024522671E-08
(PID.TID 0000.0001) %MON trcstat_ptracer1a_sd         =   7.8721676140459011E-08
(PID.TID 0000.0001) %MON trcstat_ptracer1a_del2       =   0.0000000000000000E+00
(PID.TID 0000.0001) %MON trcstat_ptracer1b_max        =   4.5758461596253686E-07
(PID.TID 0000.0001) %MON trcstat_ptracer1b_min        =   1.2703422585498275E-10
(PID.TID 0000.0001) %MON trcstat_ptracer1b_mean       =   1.5855656244057551E-08
(PID.TID 0000.0001) %MON trcstat_ptracer1b_sd         =   7.8720301796457920E-08
(PID.TID 0000.0001) %MON trcstat_ptracer1b_del2       =   0.0000000000000000E+00
(PID.TID 0000.0001) %MON trcstat_ptracer1c_max        =   4.5651649293890775E-07
(PID.TID 0000.0001) %MON trcstat_ptracer1c_min        =   1.2667654638972457E-10
(PID.TID 0000.0001) %MON trcstat_ptracer1c_mean       =   1.5838486952582794E-08
(PID.TID 0000.0001) %MON trcstat_ptracer1c_sd         =   7.8633237843703379E-08
(PID.TID 0000.0001) %MON trcstat_ptracer1c_del2       =   0.0000000000000000E+00
(PID.TID 0000.0001) %MON trcstat_ptracer1d_max        =   4.5589346462099369E-07
(PID.TID 0000.0001) %MON trcstat_ptracer1d_min        =   1.2646884288646087E-10
(PID.TID 0000.0001) %MON trcstat_ptracer1d_mean       =   1.5828451939758259E-08
(PID.TID 0000.0001) %MON trcstat_ptracer1d_sd         =   7.8567289789574594E-08
(PID.TID 0000.0001) %MON trcstat_ptracer1d_del2       =   0.0000000000000000E+00
(PID.TID 0000.0001) %MON trcstat_ptracer1e_max        =   4.5554535195486071E-07
(PID.TID 0000.0001) %MON trcstat_ptracer1e_min        =   1.2634982432177766E-10
(PID.TID 0000.0001) %MON trcstat_ptracer1e_mean       =   1.5822827267344235E-08
(PID.TID 0000.0001) %MON trcstat_ptracer1e_sd         =   7.8508858983080077E-08
(PID.TID 0000.0001) %MON trcstat_ptracer1e_del2       =   0.0000000000000000E+00
(PID.TID 0000.0001) %MON trcstat_ptracer1f_max        =   4.5535394753551396E-07
(PID.TID 0000.0001) %MON trcstat_ptracer1f_min        =   1.2628348446056302E-10
(PID.TID 0000.0001) %MON trcstat_ptracer1f_mean       =   1.5819721586701794E-08
(PID.TID 0000.0001) %MON trcstat_ptracer1f_sd         =   7.8446368237690493E-08
(PID.TID 0000.0001) %MON trcstat_ptracer1f_del2       =   0.0000000000000000E+00
(PID.TID 0000.0001) %MON trcstat_ptracer1g_max        =   4.5912634726610916E-07
(PID.TID 0000.0001) %MON trcstat_ptracer1g_min        =   1.2723414427097428E-10
(PID.TID 0000.0001) %MON trcstat_ptracer1g_mean       =   1.5954736401726648E-08
(PID.TID 0000.0001) %MON trcstat_ptracer1g_sd         =   7.9304216922117954E-08
(PID.TID 0000.0001) %MON trcstat_ptracer1g_del2       =   0.0000000000000000E+00
(PID.TID 0000.0001) %MON trcstat_ptracer1h_max        =   4.5912305451624912E-07
(PID.TID 0000.0001) %MON trcstat_ptracer1h_min        =   1.2723414427090594E-10
(PID.TID 0000.0001) %MON trcstat_ptracer1h_mean       =   1.5954650656974762E-08
(PID.TID 0000.0001) %MON trcstat_ptracer1h_sd         =   7.9303755472354783E-08
(PID.TID 0000.0001) %MON trcstat_ptracer1h_del2       =   0.0000000000000000E+00
(PID.TID 0000.0001) %MON trcstat_ptracer1i_max        =   4.5912054440781440E-07
(PID.TID 0000.0001) %MON trcstat_ptracer1i_min        =   1.2723414427085385E-10
(PID.TID 0000.0001) %MON trcstat_ptracer1i_mean       =   1.5954582992337646E-08
(PID.TID 0000.0001) %MON trcstat_ptracer1i_sd         =   7.9303390857437375E-08
(PID.TID 0000.0001) %MON trcstat_ptracer1i_del2       =   0.0000000000000000E+00
(PID.TID 0000.0001) %MON trcstat_ptracer1j_max        =   4.5911859356347213E-07
(PID.TID 0000.0001) %MON trcstat_ptracer1j_min        =   1.2723414427081335E-10
(PID.TID 0000.0001) %MON trcstat_ptracer1j_mean       =   1.5954528817406145E-08
(PID.TID 0000.0001) %MON trcstat_ptracer1j_sd         =   7.9303098605920205E-08
(PID.TID 0000.0001) %MON trcstat_ptracer1j_del2       =   0.0000000000000000E+00
(PID.TID 0000.0001) %MON trcstat_ptracer1k_max        =   4.5912069167616646E-07
(PID.TID 0000.0001) %MON trcstat_ptracer1k_min        =   1.2723414427085595E-10
(PID.TID 0000.0001) %MON trcstat_ptracer1k_mean       =   1.5954593235519882E-08
(PID.TID 0000.0001) %MON trcstat_ptracer1k_sd         =   7.9303447633536889E-08
(PID.TID 0000.0001) %MON trcstat_ptracer1k_del2       =   0.0000000000000000E+00
(PID.TID 0000.0001) %MON trcstat_ptracer1l_max        =   4.5913772422717087E-07
(PID.TID 0000.0001) %MON trcstat_ptracer1l_min        =   1.2723414427122066E-10
(PID.TID 0000.0001) %MON trcstat_ptracer1l_mean       =   1.5955109917196840E-08
(PID.TID 0000.0001) %MON trcstat_ptracer1l_sd         =   7.9306243837431859E-08
(PID.TID 0000.0001) %MON trcstat_ptracer1l_del2       =   0.0000000000000000E+00
(PID.TID 0000.0001) %MON trcstat_ptracer1m_max        =   4.5913287364849361E-07
(PID.TID 0000.0001) %MON trcstat_ptracer1m_min        =   1.2723414427111785E-10
(PID.TID 0000.0001) %MON trcstat_ptracer1m_mean       =   1.5954965436923852E-08
(PID.TID 0000.0001) %MON trcstat_ptracer1m_sd         =   7.9305462443553266E-08
(PID.TID 0000.0001) %MON trcstat_ptracer1m_del2       =   0.0000000000000000E+00
(PID.TID 0000.0001) %MON trcstat_ptracer1n_max        =   4.5912890806619316E-07
(PID.TID 0000.0001) %MON trcstat_ptracer1n_min        =   1.2723414427103410E-10
(PID.TID 0000.0001) %MON trcstat_ptracer1n_mean       =   1.5954845920484117E-08
(PID.TID 0000.0001) %MON trcstat_ptracer1n_sd         =   7.9304815733944134E-08
(PID.TID 0000.0001) %MON trcstat_ptracer1n_del2       =   0.0000000000000000E+00
(PID.TID 0000.0001) %MON trcstat_ptracer1o_max        =   4.5912565092792296E-07
(PID.TID 0000.0001) %MON trcstat_ptracer1o_min        =   1.2723414427096550E-10
(PID.TID 0000.0001) %MON trcstat_ptracer1o_mean       =   1.5954747518901150E-08
(PID.TID 0000.0001) %MON trcstat_ptracer1o_sd         =   7.9304283182290914E-08
(PID.TID 0000.0001) %MON trcstat_ptracer1o_del2       =   0.0000000000000000E+00
(PID.TID 0000.0001) %MON trcstat_ptracer1p_max        =   4.5912036316107554E-07
(PID.TID 0000.0001) %MON trcstat_ptracer1p_min        =   1.2723414427085383E-10
(PID.TID 0000.0001) %MON trcstat_ptracer1p_mean       =   1.5954588207322280E-08
(PID.TID 0000.0001) %MON trcstat_ptracer1p_sd         =   7.9303421075147688E-08
(PID.TID 0000.0001) %MON trcstat_ptracer1p_del2       =   0.0000000000000000E+00
(PID.TID 0000.0001) %MON trcstat_ptracer1q_max        =   4.5911234934712457E-07
(PID.TID 0000.0001) %MON trcstat_ptracer1q_min        =   1.2723414427068472E-10
(PID.TID 0000.0001) %MON trcstat_ptracer1q_mean       =   1.5954347646736505E-08
(PID.TID 0000.0001) %MON trcstat_ptracer1q_sd         =   7.9302119492972341E-08
(PID.TID 0000.0001) %MON trcstat_ptracer1q_del2       =   0.0000000000000000E+00
(PID.TID 0000.0001) %MON trcstat_ptracer1r_max        =   4.5911196857415189E-07
(PID.TID 0000.0001) %MON trcstat_ptracer1r_min        =   1.2723414427067709E-10
(PID.TID 0000.0001) %MON trcstat_ptracer1r_mean       =   1.5954336021890716E-08
(PID.TID 0000.0001) %MON trcstat_ptracer1r_sd         =   7.9302056506893774E-08
(PID.TID 0000.0001) %MON trcstat_ptracer1r_del2       =   0.0000000000000000E+00
(PID.TID 0000.0001) %MON trcstat_ptracer1s_max        =   4.5911165377712181E-07
(PID.TID 0000.0001) %MON trcstat_ptracer1s_min        =   1.2723414427067084E-10
(PID.TID 0000.0001) %MON trcstat_ptracer1s_mean       =   1.5954326438251707E-08
(PID.TID 0000.0001) %MON trcstat_ptracer1s_sd         =   7.9302004582588076E-08
(PID.TID 0000.0001) %MON trcstat_ptracer1s_del2       =   0.0000000000000000E+00
(PID.TID 0000.0001) %MON trcstat_ptracer1t_max        =   4.5911139342096019E-07
(PID.TID 0000.0001) %MON trcstat_ptracer1t_min        =   1.2723414427066559E-10
(PID.TID 0000.0001) %MON trcstat_ptracer1t_mean       =   1.5954318532566305E-08
(PID.TID 0000.0001) %MON trcstat_ptracer1t_sd         =   7.9301961750775284E-08
(PID.TID 0000.0001) %MON trcstat_ptracer1t_del2       =   0.0000000000000000E+00
(PID.TID 0000.0001) %MON trcstat_ptracer1u_max        =   0.0000000000000000E+00
(PID.TID 0000.0001) %MON trcstat_ptracer1u_min        =   0.0000000000000000E+00
(PID.TID 0000.0001) %MON trcstat_ptracer1u_mean       =   0.0000000000000000E+00
(PID.TID 0000.0001) %MON trcstat_ptracer1u_sd         =   0.0000000000000000E+00
(PID.TID 0000.0001) %MON trcstat_ptracer1u_del2       =   0.0000000000000000E+00
(PID.TID 0000.0001) %MON trcstat_ptracer1v_max        =   0.0000000000000000E+00
(PID.TID 0000.0001) %MON trcstat_ptracer1v_min        =   0.0000000000000000E+00
(PID.TID 0000.0001) %MON trcstat_ptracer1v_mean       =   0.0000000000000000E+00
(PID.TID 0000.0001) %MON trcstat_ptracer1v_sd         =   0.0000000000000000E+00
(PID.TID 0000.0001) %MON trcstat_ptracer1v_del2       =   0.0000000000000000E+00
(PID.TID 0000.0001) %MON trcstat_ptracer1w_max        =   0.0000000000000000E+00
(PID.TID 0000.0001) %MON trcstat_ptracer1w_min        =   0.0000000000000000E+00
(PID.TID 0000.0001) %MON trcstat_ptracer1w_mean       =   0.0000000000000000E+00
(PID.TID 0000.0001) %MON trcstat_ptracer1w_sd         =   0.0000000000000000E+00
(PID.TID 0000.0001) %MON trcstat_ptracer1w_del2       =   0.0000000000000000E+00
(PID.TID 0000.0001) %MON trcstat_ptracer1x_max        =   0.0000000000000000E+00
(PID.TID 0000.0001) %MON trcstat_ptracer1x_min        =   0.0000000000000000E+00
(PID.TID 0000.0001) %MON trcstat_ptracer1x_mean       =   0.0000000000000000E+00
(PID.TID 0000.0001) %MON trcstat_ptracer1x_sd         =   0.0000000000000000E+00
(PID.TID 0000.0001) %MON trcstat_ptracer1x_del2       =   0.0000000000000000E+00
(PID.TID 0000.0001) %MON trcstat_ptracer1y_max        =   0.0000000000000000E+00
(PID.TID 0000.0001) %MON trcstat_ptracer1y_min        =   0.0000000000000000E+00
(PID.TID 0000.0001) %MON trcstat_ptracer1y_mean       =   0.0000000000000000E+00
(PID.TID 0000.0001) %MON trcstat_ptracer1y_sd         =   0.0000000000000000E+00
(PID.TID 0000.0001) %MON trcstat_ptracer1y_del2       =   0.0000000000000000E+00
(PID.TID 0000.0001) %MON trcstat_ptracer1z_max        =   0.0000000000000000E+00
(PID.TID 0000.0001) %MON trcstat_ptracer1z_min        =   0.0000000000000000E+00
(PID.TID 0000.0001) %MON trcstat_ptracer1z_mean       =   0.0000000000000000E+00
(PID.TID 0000.0001) %MON trcstat_ptracer1z_sd         =   0.0000000000000000E+00
(PID.TID 0000.0001) %MON trcstat_ptracer1z_del2       =   0.0000000000000000E+00
(PID.TID 0000.0001) %MON trcstat_ptracer1A_max        =   7.2821367393008140E-03
(PID.TID 0000.0001) %MON trcstat_ptracer1A_min        =   2.0191299013408370E-06
(PID.TID 0000.0001) %MON trcstat_ptracer1A_mean       =   2.5304499596968109E-04
(PID.TID 0000.0001) %MON trcstat_ptracer1A_sd         =   1.2575096616109541E-03
(PID.TID 0000.0001) %MON trcstat_ptracer1A_del2       =   0.0000000000000000E+00
(PID.TID 0000.0001) %MON trcstat_ptracer1B_max        =   0.0000000000000000E+00
(PID.TID 0000.0001) %MON trcstat_ptracer1B_min        =   0.0000000000000000E+00
(PID.TID 0000.0001) %MON trcstat_ptracer1B_mean       =   0.0000000000000000E+00
(PID.TID 0000.0001) %MON trcstat_ptracer1B_sd         =   0.0000000000000000E+00
(PID.TID 0000.0001) %MON trcstat_ptracer1B_del2       =   0.0000000000000000E+00
(PID.TID 0000.0001) %MON trcstat_ptracer1C_max        =   0.0000000000000000E+00
(PID.TID 0000.0001) %MON trcstat_ptracer1C_min        =   0.0000000000000000E+00
(PID.TID 0000.0001) %MON trcstat_ptracer1C_mean       =   0.0000000000000000E+00
(PID.TID 0000.0001) %MON trcstat_ptracer1C_sd         =   0.0000000000000000E+00
(PID.TID 0000.0001) %MON trcstat_ptracer1C_del2       =   0.0000000000000000E+00
(PID.TID 0000.0001) %MON trcstat_ptracer1D_max        =   7.2822049577787491E-03
(PID.TID 0000.0001) %MON trcstat_ptracer1D_min        =   2.0191317981979489E-06
(PID.TID 0000.0001) %MON trcstat_ptracer1D_mean       =   2.5304707674443915E-04
(PID.TID 0000.0001) %MON trcstat_ptracer1D_sd         =   1.2574419428954750E-03
(PID.TID 0000.0001) %MON trcstat_ptracer1D_del2       =   0.0000000000000000E+00
(PID.TID 0000.0001) %MON trcstat_ptracer1E_max        =   0.0000000000000000E+00
(PID.TID 0000.0001) %MON trcstat_ptracer1E_min        =   0.0000000000000000E+00
(PID.TID 0000.0001) %MON trcstat_ptracer1E_mean       =   0.0000000000000000E+00
(PID.TID 0000.0001) %MON trcstat_ptracer1E_sd         =   0.0000000000000000E+00
(PID.TID 0000.0001) %MON trcstat_ptracer1E_del2       =   0.0000000000000000E+00
(PID.TID 0000.0001) %MON trcstat_ptracer1F_max        =   0.0000000000000000E+00
(PID.TID 0000.0001) %MON trcstat_ptracer1F_min        =   0.0000000000000000E+00
(PID.TID 0000.0001) %MON trcstat_ptracer1F_mean       =   0.0000000000000000E+00
(PID.TID 0000.0001) %MON trcstat_ptracer1F_sd         =   0.0000000000000000E+00
(PID.TID 0000.0001) %MON trcstat_ptracer1F_del2       =   0.0000000000000000E+00
(PID.TID 0000.0001) %MON trcstat_ptracer1G_max        =   7.2822612987387984E-03
(PID.TID 0000.0001) %MON trcstat_ptracer1G_min        =   2.0191360455020276E-06
(PID.TID 0000.0001) %MON trcstat_ptracer1G_mean       =   2.5304881226148178E-04
(PID.TID 0000.0001) %MON trcstat_ptracer1G_sd         =   1.2573410583138513E-03
(PID.TID 0000.0001) %MON trcstat_ptracer1G_del2       =   0.0000000000000000E+00
(PID.TID 0000.0001) %MON trcstat_ptracer1H_max        =   0.0000000000000000E+00
(PID.TID 0000.0001) %MON trcstat_ptracer1H_min        =   0.0000000000000000E+00
(PID.TID 0000.0001) %MON trcstat_ptracer1H_mean       =   0.0000000000000000E+00
(PID.TID 0000.0001) %MON trcstat_ptracer1H_sd         =   0.0000000000000000E+00
(PID.TID 0000.0001) %MON trcstat_ptracer1H_del2       =   0.0000000000000000E+00
(PID.TID 0000.0001) %MON trcstat_ptracer1I_max        =   0.0000000000000000E+00
(PID.TID 0000.0001) %MON trcstat_ptracer1I_min        =   0.0000000000000000E+00
(PID.TID 0000.0001) %MON trcstat_ptracer1I_mean       =   0.0000000000000000E+00
(PID.TID 0000.0001) %MON trcstat_ptracer1I_sd         =   0.0000000000000000E+00
(PID.TID 0000.0001) %MON trcstat_ptracer1I_del2       =   0.0000000000000000E+00
(PID.TID 0000.0001) %MON trcstat_ptracer1J_max        =   7.2823077515018052E-03
(PID.TID 0000.0001) %MON trcstat_ptracer1J_min        =   2.0191459472607237E-06
(PID.TID 0000.0001) %MON trcstat_ptracer1J_mean       =   2.5305025245343419E-04
(PID.TID 0000.0001) %MON trcstat_ptracer1J_sd         =   1.2571949272798043E-03
(PID.TID 0000.0001) %MON trcstat_ptracer1J_del2       =   0.0000000000000000E+00
(PID.TID 0000.0001) %MON trcstat_ptracer1K_max        =   0.0000000000000000E+00
(PID.TID 0000.0001) %MON trcstat_ptracer1K_min        =   0.0000000000000000E+00
(PID.TID 0000.0001) %MON trcstat_ptracer1K_mean       =   0.0000000000000000E+00
(PID.TID 0000.0001) %MON trcstat_ptracer1K_sd         =   0.0000000000000000E+00
(PID.TID 0000.0001) %MON trcstat_ptracer1K_del2       =   0.0000000000000000E+00
(PID.TID 0000.0001) %MON trcstat_ptracer1L_max        =   0.0000000000000000E+00
(PID.TID 0000.0001) %MON trcstat_ptracer1L_min        =   0.0000000000000000E+00
(PID.TID 0000.0001) %MON trcstat_ptracer1L_mean       =   0.0000000000000000E+00
(PID.TID 0000.0001) %MON trcstat_ptracer1L_sd         =   0.0000000000000000E+00
(PID.TID 0000.0001) %MON trcstat_ptracer1L_del2       =   0.0000000000000000E+00
(PID.TID 0000.0001) %MON trcstat_ptracer1M_max        =   7.2823541344387236E-03
(PID.TID 0000.0001) %MON trcstat_ptracer1M_min        =   2.0191698445306157E-06
(PID.TID 0000.0001) %MON trcstat_ptracer1M_mean       =   2.5305169566264512E-04
(PID.TID 0000.0001) %MON trcstat_ptracer1M_sd         =   1.2569879926512498E-03
(PID.TID 0000.0001) %MON trcstat_ptracer1M_del2       =   0.0000000000000000E+00
(PID.TID 0000.0001) %MON trcstat_ptracer1N_max        =   0.0000000000000000E+00
(PID.TID 0000.0001) %MON trcstat_ptracer1N_min        =   0.0000000000000000E+00
(PID.TID 0000.0001) %MON trcstat_ptracer1N_mean       =   0.0000000000000000E+00
(PID.TID 0000.0001) %MON trcstat_ptracer1N_sd         =   0.0000000000000000E+00
(PID.TID 0000.0001) %MON trcstat_ptracer1N_del2       =   0.0000000000000000E+00
(PID.TID 0000.0001) %MON trcstat_ptracer1O_max        =   7.2824545979675763E-03
(PID.TID 0000.0001) %MON trcstat_ptracer1O_min        =   2.0192291959909644E-06
(PID.TID 0000.0001) %MON trcstat_ptracer1O_mean       =   2.5305476365577708E-04
(PID.TID 0000.0001) %MON trcstat_ptracer1O_sd         =   1.2567051946406984E-03
(PID.TID 0000.0001) %MON trcstat_ptracer1O_del2       =   0.0000000000000000E+00
(PID.TID 0000.0001) %MON trcstat_ptracer1P_max        =   7.2824666428279615E-03
(PID.TID 0000.0001) %MON trcstat_ptracer1P_min        =   2.0192560020783897E-06
(PID.TID 0000.0001) %MON trcstat_ptracer1P_mean       =   2.5305521089572403E-04
(PID.TID 0000.0001) %MON trcstat_ptracer1P_sd         =   1.2562906294541108E-03
(PID.TID 0000.0001) %MON trcstat_ptracer1P_del2       =   0.0000000000000000E+00
(PID.TID 0000.0001) %MON trcstat_ptracer1Q_max        =   7.2824759104356106E-03
(PID.TID 0000.0001) %MON trcstat_ptracer1Q_min        =   2.0192564603760825E-06
(PID.TID 0000.0001) %MON trcstat_ptracer1Q_mean       =   2.5305560359184314E-04
(PID.TID 0000.0001) %MON trcstat_ptracer1Q_sd         =   1.2557127477733432E-03
(PID.TID 0000.0001) %MON trcstat_ptracer1Q_del2       =   0.0000000000000000E+00
(PID.TID 0000.0001) %MON trcstat_ptracer1R_max        =   7.2824826006928321E-03
(PID.TID 0000.0001) %MON trcstat_ptracer1R_min        =   2.0192585968271218E-06
(PID.TID 0000.0001) %MON trcstat_ptracer1R_mean       =   2.5305596088268589E-04
(PID.TID 0000.0001) %MON trcstat_ptracer1R_sd         =   1.2549094302189733E-03
(PID.TID 0000.0001) %MON trcstat_ptracer1R_del2       =   0.0000000000000000E+00
(PID.TID 0000.0001) %MON trcstat_ptracer1S_max        =   0.0000000000000000E+00
(PID.TID 0000.0001) %MON trcstat_ptracer1S_min        =   0.0000000000000000E+00
(PID.TID 0000.0001) %MON trcstat_ptracer1S_mean       =   0.0000000000000000E+00
(PID.TID 0000.0001) %MON trcstat_ptracer1S_sd         =   0.0000000000000000E+00
(PID.TID 0000.0001) %MON trcstat_ptracer1S_del2       =   0.0000000000000000E+00
(PID.TID 0000.0001) %MON trcstat_ptracer1T_max        =   0.0000000000000000E+00
(PID.TID 0000.0001) %MON trcstat_ptracer1T_min        =   0.0000000000000000E+00
(PID.TID 0000.0001) %MON trcstat_ptracer1T_mean       =   0.0000000000000000E+00
(PID.TID 0000.0001) %MON trcstat_ptracer1T_sd         =   0.0000000000000000E+00
(PID.TID 0000.0001) %MON trcstat_ptracer1T_del2       =   0.0000000000000000E+00
(PID.TID 0000.0001) %MON trcstat_ptracer1U_max        =   0.0000000000000000E+00
(PID.TID 0000.0001) %MON trcstat_ptracer1U_min        =   0.0000000000000000E+00
(PID.TID 0000.0001) %MON trcstat_ptracer1U_mean       =   0.0000000000000000E+00
(PID.TID 0000.0001) %MON trcstat_ptracer1U_sd         =   0.0000000000000000E+00
(PID.TID 0000.0001) %MON trcstat_ptracer1U_del2       =   0.0000000000000000E+00
(PID.TID 0000.0001) %MON trcstat_ptracer1V_max        =   0.0000000000000000E+00
(PID.TID 0000.0001) %MON trcstat_ptracer1V_min        =   0.0000000000000000E+00
(PID.TID 0000.0001) %MON trcstat_ptracer1V_mean       =   0.0000000000000000E+00
(PID.TID 0000.0001) %MON trcstat_ptracer1V_sd         =   0.0000000000000000E+00
(PID.TID 0000.0001) %MON trcstat_ptracer1V_del2       =   0.0000000000000000E+00
(PID.TID 0000.0001) %MON trcstat_ptracer1W_max        =   0.0000000000000000E+00
(PID.TID 0000.0001) %MON trcstat_ptracer1W_min        =   0.0000000000000000E+00
(PID.TID 0000.0001) %MON trcstat_ptracer1W_mean       =   0.0000000000000000E+00
(PID.TID 0000.0001) %MON trcstat_ptracer1W_sd         =   0.0000000000000000E+00
(PID.TID 0000.0001) %MON trcstat_ptracer1W_del2       =   0.0000000000000000E+00
(PID.TID 0000.0001) %MON trcstat_ptracer1X_max        =   0.0000000000000000E+00
(PID.TID 0000.0001) %MON trcstat_ptracer1X_min        =   0.0000000000000000E+00
(PID.TID 0000.0001) %MON trcstat_ptracer1X_mean       =   0.0000000000000000E+00
(PID.TID 0000.0001) %MON trcstat_ptracer1X_sd         =   0.0000000000000000E+00
(PID.TID 0000.0001) %MON trcstat_ptracer1X_del2       =   0.0000000000000000E+00
(PID.TID 0000.0001) %MON trcstat_ptracer1Y_max        =   0.0000000000000000E+00
(PID.TID 0000.0001) %MON trcstat_ptracer1Y_min        =   0.0000000000000000E+00
(PID.TID 0000.0001) %MON trcstat_ptracer1Y_mean       =   0.0000000000000000E+00
(PID.TID 0000.0001) %MON trcstat_ptracer1Y_sd         =   0.0000000000000000E+00
(PID.TID 0000.0001) %MON trcstat_ptracer1Y_del2       =   0.0000000000000000E+00
(PID.TID 0000.0001) %MON trcstat_ptracer1Z_max        =   0.0000000000000000E+00
(PID.TID 0000.0001) %MON trcstat_ptracer1Z_min        =   0.0000000000000000E+00
(PID.TID 0000.0001) %MON trcstat_ptracer1Z_mean       =   0.0000000000000000E+00
(PID.TID 0000.0001) %MON trcstat_ptracer1Z_sd         =   0.0000000000000000E+00
(PID.TID 0000.0001) %MON trcstat_ptracer1Z_del2       =   0.0000000000000000E+00
(PID.TID 0000.0001) %MON trcstat_ptracer2a_max        =   0.0000000000000000E+00
(PID.TID 0000.0001) %MON trcstat_ptracer2a_min        =   0.0000000000000000E+00
(PID.TID 0000.0001) %MON trcstat_ptracer2a_mean       =   0.0000000000000000E+00
(PID.TID 0000.0001) %MON trcstat_ptracer2a_sd         =   0.0000000000000000E+00
(PID.TID 0000.0001) %MON trcstat_ptracer2a_del2       =   0.0000000000000000E+00
(PID.TID 0000.0001) %MON trcstat_ptracer2b_max        =   0.0000000000000000E+00
(PID.TID 0000.0001) %MON trcstat_ptracer2b_min        =   0.0000000000000000E+00
(PID.TID 0000.0001) %MON trcstat_ptracer2b_mean       =   0.0000000000000000E+00
(PID.TID 0000.0001) %MON trcstat_ptracer2b_sd         =   0.0000000000000000E+00
(PID.TID 0000.0001) %MON trcstat_ptracer2b_del2       =   0.0000000000000000E+00
(PID.TID 0000.0001) %MON trcstat_ptracer2c_max        =   0.0000000000000000E+00
(PID.TID 0000.0001) %MON trcstat_ptracer2c_min        =   0.0000000000000000E+00
(PID.TID 0000.0001) %MON trcstat_ptracer2c_mean       =   0.0000000000000000E+00
(PID.TID 0000.0001) %MON trcstat_ptracer2c_sd         =   0.0000000000000000E+00
(PID.TID 0000.0001) %MON trcstat_ptracer2c_del2       =   0.0000000000000000E+00
(PID.TID 0000.0001) %MON trcstat_ptracer2d_max        =   0.0000000000000000E+00
(PID.TID 0000.0001) %MON trcstat_ptracer2d_min        =   0.0000000000000000E+00
(PID.TID 0000.0001) %MON trcstat_ptracer2d_mean       =   0.0000000000000000E+00
(PID.TID 0000.0001) %MON trcstat_ptracer2d_sd         =   0.0000000000000000E+00
(PID.TID 0000.0001) %MON trcstat_ptracer2d_del2       =   0.0000000000000000E+00
(PID.TID 0000.0001) %MON trcstat_ptracer2e_max        =   0.0000000000000000E+00
(PID.TID 0000.0001) %MON trcstat_ptracer2e_min        =   0.0000000000000000E+00
(PID.TID 0000.0001) %MON trcstat_ptracer2e_mean       =   0.0000000000000000E+00
(PID.TID 0000.0001) %MON trcstat_ptracer2e_sd         =   0.0000000000000000E+00
(PID.TID 0000.0001) %MON trcstat_ptracer2e_del2       =   0.0000000000000000E+00
(PID.TID 0000.0001) %MON trcstat_ptracer2f_max        =   0.0000000000000000E+00
(PID.TID 0000.0001) %MON trcstat_ptracer2f_min        =   0.0000000000000000E+00
(PID.TID 0000.0001) %MON trcstat_ptracer2f_mean       =   0.0000000000000000E+00
(PID.TID 0000.0001) %MON trcstat_ptracer2f_sd         =   0.0000000000000000E+00
(PID.TID 0000.0001) %MON trcstat_ptracer2f_del2       =   0.0000000000000000E+00
(PID.TID 0000.0001) %MON trcstat_ptracer2g_max        =   1.2493685957780578E-02
(PID.TID 0000.0001) %MON trcstat_ptracer2g_min        =   4.5092866509807420E-06
(PID.TID 0000.0001) %MON trcstat_ptracer2g_mean       =   3.0704485330526653E-04
(PID.TID 0000.0001) %MON trcstat_ptracer2g_sd         =   1.5807141755070401E-03
(PID.TID 0000.0001) %MON trcstat_ptracer2g_del2       =   0.0000000000000000E+00
(PID.TID 0000.0001) %MON trcstat_ptracer2h_max        =   1.2733465005710596E-02
(PID.TID 0000.0001) %MON trcstat_ptracer2h_min        =   4.5123454184124883E-06
(PID.TID 0000.0001) %MON trcstat_ptracer2h_mean       =   3.1493520629294916E-04
(PID.TID 0000.0001) %MON trcstat_ptracer2h_sd         =   1.6170125313157318E-03
(PID.TID 0000.0001) %MON trcstat_ptracer2h_del2       =   0.0000000000000000E+00
(PID.TID 0000.0001) %MON trcstat_ptracer2i_max        =   1.2962397913107831E-02
(PID.TID 0000.0001) %MON trcstat_ptracer2i_min        =   4.5153807371443589E-06
(PID.TID 0000.0001) %MON trcstat_ptracer2i_mean       =   3.2280894760878544E-04
(PID.TID 0000.0001) %MON trcstat_ptracer2i_sd         =   1.6530537371996330E-03
(PID.TID 0000.0001) %MON trcstat_ptracer2i_del2       =   0.0000000000000000E+00
(PID.TID 0000.0001) %MON trcstat_ptracer2j_max        =   1.3180437499339748E-02
(PID.TID 0000.0001) %MON trcstat_ptracer2j_min        =   4.5185436649874914E-06
(PID.TID 0000.0001) %MON trcstat_ptracer2j_mean       =   3.3065748190695330E-04
(PID.TID 0000.0001) %MON trcstat_ptracer2j_sd         =   1.6888136136261164E-03
(PID.TID 0000.0001) %MON trcstat_ptracer2j_del2       =   0.0000000000000000E+00
(PID.TID 0000.0001) %MON trcstat_ptracer2k_max        =   1.2990549077346628E-03
(PID.TID 0000.0001) %MON trcstat_ptracer2k_min        =   4.5179280318999230E-07
(PID.TID 0000.0001) %MON trcstat_ptracer2k_mean       =   3.2384067871706235E-05
(PID.TID 0000.0001) %MON trcstat_ptracer2k_sd         =   1.6577234461336393E-04
(PID.TID 0000.0001) %MON trcstat_ptracer2k_del2       =   0.0000000000000000E+00
(PID.TID 0000.0001) %MON trcstat_ptracer2l_max        =   1.5193208825906074E-02
(PID.TID 0000.0001) %MON trcstat_ptracer2l_min        =   4.5382134329238119E-06
(PID.TID 0000.0001) %MON trcstat_ptracer2l_mean       =   4.3098866906647680E-04
(PID.TID 0000.0001) %MON trcstat_ptracer2l_sd         =   2.1412284072004420E-03
(PID.TID 0000.0001) %MON trcstat_ptracer2l_del2       =   0.0000000000000000E+00
(PID.TID 0000.0001) %MON trcstat_ptracer2m_max        =   1.6506318240192417E-02
(PID.TID 0000.0001) %MON trcstat_ptracer2m_min        =   4.5409244439209982E-06
(PID.TID 0000.0001) %MON trcstat_ptracer2m_mean       =   5.0145294032562899E-04
(PID.TID 0000.0001) %MON trcstat_ptracer2m_sd         =   2.4777049472688283E-03
(PID.TID 0000.0001) %MON trcstat_ptracer2m_del2       =   0.0000000000000000E+00
(PID.TID 0000.0001) %MON trcstat_ptracer2n_max        =   1.2487879966163167E-03
(PID.TID 0000.0001) %MON trcstat_ptracer2n_min        =   4.5146958745231855E-07
(PID.TID 0000.0001) %MON trcstat_ptracer2n_mean       =   3.0695386622539197E-05
(PID.TID 0000.0001) %MON trcstat_ptracer2n_sd         =   1.5801979324941247E-04
(PID.TID 0000.0001) %MON trcstat_ptracer2n_del2       =   0.0000000000000000E+00
(PID.TID 0000.0001) %MON trcstat_ptracer2o_max        =   1.4981364726382186E-02
(PID.TID 0000.0001) %MON trcstat_ptracer2o_min        =   4.5372783275798495E-06
(PID.TID 0000.0001) %MON trcstat_ptracer2o_mean       =   4.1659959484711436E-04
(PID.TID 0000.0001) %MON trcstat_ptracer2o_sd         =   2.0758279566682075E-03
(PID.TID 0000.0001) %MON trcstat_ptracer2o_del2       =   0.0000000000000000E+00
(PID.TID 0000.0001) %MON trcstat_ptracer2p_max        =   1.5689896654863589E-02
(PID.TID 0000.0001) %MON trcstat_ptracer2p_min        =   4.5402904539762050E-06
(PID.TID 0000.0001) %MON trcstat_ptracer2p_mean       =   4.7299075150494915E-04
(PID.TID 0000.0001) %MON trcstat_ptracer2p_sd         =   2.3363550508379879E-03
(PID.TID 0000.0001) %MON trcstat_ptracer2p_del2       =   0.0000000000000000E+00
(PID.TID 0000.0001) %MON trcstat_ptracer2q_max        =   1.1936223658730685E-03
(PID.TID 0000.0001) %MON trcstat_ptracer2q_min        =   4.5121856922260035E-07
(PID.TID 0000.0001) %MON trcstat_ptracer2q_mean       =   2.9003868094393671E-05
(PID.TID 0000.0001) %MON trcstat_ptracer2q_sd         =   1.5016601035135164E-04
(PID.TID 0000.0001) %MON trcstat_ptracer2q_del2       =   0.0000000000000000E+00
(PID.TID 0000.0001) %MON trcstat_ptracer2r_max        =   1.4736213399969037E-02
(PID.TID 0000.0001) %MON trcstat_ptracer2r_min        =   4.5361625955174777E-06
(PID.TID 0000.0001) %MON trcstat_ptracer2r_mean       =   4.0161014653756789E-04
(PID.TID 0000.0001) %MON trcstat_ptracer2r_sd         =   2.0081654335699010E-03
(PID.TID 0000.0001) %MON trcstat_ptracer2r_del2       =   0.0000000000000000E+00
(PID.TID 0000.0001) %MON trcstat_ptracer2s_max        =   1.5552870607885981E-02
(PID.TID 0000.0001) %MON trcstat_ptracer2s_min        =   4.5397632014115538E-06
(PID.TID 0000.0001) %MON trcstat_ptracer2s_mean       =   4.5977720396135781E-04
(PID.TID 0000.0001) %MON trcstat_ptracer2s_sd         =   2.2737930225573888E-03
(PID.TID 0000.0001) %MON trcstat_ptracer2s_del2       =   0.0000000000000000E+00
(PID.TID 0000.0001) %MON trcstat_ptracer2t_max        =   1.1337349652444618E-03
(PID.TID 0000.0001) %MON trcstat_ptracer2t_min        =   4.5117045154072612E-07
(PID.TID 0000.0001) %MON trcstat_ptracer2t_mean       =   2.7317090272650574E-05
(PID.TID 0000.0001) %MON trcstat_ptracer2t_sd         =   1.4223343718620102E-04
(PID.TID 0000.0001) %MON trcstat_ptracer2t_del2       =   0.0000000000000000E+00
(PID.TID 0000.0001) %MON trcstat_ptracer2u_max        =   1.4453315667315831E-02
(PID.TID 0000.0001) %MON trcstat_ptracer2u_min        =   4.5348328190628032E-06
(PID.TID 0000.0001) %MON trcstat_ptracer2u_mean       =   3.8608930671196279E-04
(PID.TID 0000.0001) %MON trcstat_ptracer2u_sd         =   1.9383713079405870E-03
(PID.TID 0000.0001) %MON trcstat_ptracer2u_del2       =   0.0000000000000000E+00
(PID.TID 0000.0001) %MON trcstat_ptracer2v_max        =   1.5400550252696980E-02
(PID.TID 0000.0001) %MON trcstat_ptracer2v_min        =   4.5391427724274569E-06
(PID.TID 0000.0001) %MON trcstat_ptracer2v_mean       =   4.4696379171133005E-04
(PID.TID 0000.0001) %MON trcstat_ptracer2v_sd         =   2.2141054914096561E-03
(PID.TID 0000.0001) %MON trcstat_ptracer2v_del2       =   0.0000000000000000E+00
(PID.TID 0000.0001) %MON trcstat_ptracer2w_max        =   1.0695324109242488E-03
(PID.TID 0000.0001) %MON trcstat_ptracer2w_min        =   4.5104895524141786E-07
(PID.TID 0000.0001) %MON trcstat_ptracer2w_mean       =   2.5643193107297525E-05
(PID.TID 0000.0001) %MON trcstat_ptracer2w_sd         =   1.3425246549182286E-04
(PID.TID 0000.0001) %MON trcstat_ptracer2w_del2       =   0.0000000000000000E+00
(PID.TID 0000.0001) %MON trcstat_ptracer2x_max        =   1.4128683567348348E-02
(PID.TID 0000.0001) %MON trcstat_ptracer2x_min        =   4.5332521825107455E-06
(PID.TID 0000.0001) %MON trcstat_ptracer2x_mean       =   3.7012080887910615E-04
(PID.TID 0000.0001) %MON trcstat_ptracer2x_sd         =   1.8666134949122488E-03
(PID.TID 0000.0001) %MON trcstat_ptracer2x_del2       =   0.0000000000000000E+00
(PID.TID 0000.0001) %MON trcstat_ptracer2y_max        =   1.5221922910737481E-02
(PID.TID 0000.0001) %MON trcstat_ptracer2y_min        =   4.5384260411294888E-06
(PID.TID 0000.0001) %MON trcstat_ptracer2y_mean       =   4.3339123034207878E-04
(PID.TID 0000.0001) %MON trcstat_ptracer2y_sd         =   2.1515909033521367E-03
(PID.TID 0000.0001) %MON trcstat_ptracer2y_del2       =   0.0000000000000000E+00
(PID.TID 0000.0001) %MON trcstat_ptracer2z_max        =   1.3758512178014074E-02
(PID.TID 0000.0001) %MON trcstat_ptracer2z_min        =   4.5313852392776606E-06
(PID.TID 0000.0001) %MON trcstat_ptracer2z_mean       =   3.5379091295898552E-04
(PID.TID 0000.0001) %MON trcstat_ptracer2z_sd         =   1.7930493970097759E-03
(PID.TID 0000.0001) %MON trcstat_ptracer2z_del2       =   0.0000000000000000E+00
(PID.TID 0000.0001) %MON trcstat_ptracer2A_max        =   1.5013108073247447E-02
(PID.TID 0000.0001) %MON trcstat_ptracer2A_min        =   4.5376340218984699E-06
(PID.TID 0000.0001) %MON trcstat_ptracer2A_mean       =   4.1912544962547656E-04
(PID.TID 0000.0001) %MON trcstat_ptracer2A_sd         =   2.0864844028926121E-03
(PID.TID 0000.0001) %MON trcstat_ptracer2A_del2       =   0.0000000000000000E+00
(PID.TID 0000.0001) %MON trcstat_ptracer2B_max        =   1.4769372204666812E-02
(PID.TID 0000.0001) %MON trcstat_ptracer2B_min        =   4.5368578899963510E-06
(PID.TID 0000.0001) %MON trcstat_ptracer2B_mean       =   4.0423204282841792E-04
(PID.TID 0000.0001) %MON trcstat_ptracer2B_sd         =   2.0189500796884570E-03
(PID.TID 0000.0001) %MON trcstat_ptracer2B_del2       =   0.0000000000000000E+00
(PID.TID 0000.0001) %MON trcstat_ptracer2C_max        =   1.4485975965799917E-02
(PID.TID 0000.0001) %MON trcstat_ptracer2C_min        =   4.5363835259117435E-06
(PID.TID 0000.0001) %MON trcstat_ptracer2C_mean       =   3.8879388874841987E-04
(PID.TID 0000.0001) %MON trcstat_ptracer2C_sd         =   1.9491820840649107E-03
(PID.TID 0000.0001) %MON trcstat_ptracer2C_del2       =   0.0000000000000000E+00
(PID.TID 0000.0001) %MON trcstat_ptracer2D_max        =   1.4157497749806246E-02
(PID.TID 0000.0001) %MON trcstat_ptracer2D_min        =   4.5370275166311871E-06
(PID.TID 0000.0001) %MON trcstat_ptracer2D_mean       =   3.7289407566988325E-04
(PID.TID 0000.0001) %MON trcstat_ptracer2D_sd         =   1.8773249552354434E-03
(PID.TID 0000.0001) %MON trcstat_ptracer2D_del2       =   0.0000000000000000E+00
(PID.TID 0000.0001) // =======================================================
(PID.TID 0000.0001) // End MONITOR ptracers field statistics
(PID.TID 0000.0001) // =======================================================
 Computing Diagnostic #    160  TRAC01       Counter:       1   Parms: SMR     MR      
 Computing Diagnostic #    174  TRAC02       Counter:       1   Parms: SMR     MR      
 Computing Diagnostic #    188  TRAC03       Counter:       1   Parms: SMR     MR      
 Computing Diagnostic #    202  TRAC04       Counter:       1   Parms: SMR     MR      
 Computing Diagnostic #    216  TRAC05       Counter:       1   Parms: SMR     MR      
 Computing Diagnostic #    230  TRAC06       Counter:       1   Parms: SMR     MR      
 Computing Diagnostic #    244  TRAC07       Counter:       1   Parms: SMR     MR      
 Computing Diagnostic #    258  TRAC08       Counter:       1   Parms: SMR     MR      
 Computing Diagnostic #    272  TRAC09       Counter:       1   Parms: SMR     MR      
 Computing Diagnostic #    286  TRAC10       Counter:       1   Parms: SMR     MR      
 Computing Diagnostic #    300  TRAC11       Counter:       1   Parms: SMR     MR      
 Computing Diagnostic #    314  TRAC12       Counter:       1   Parms: SMR     MR      
 Computing Diagnostic #    328  TRAC13       Counter:       1   Parms: SMR     MR      
 Computing Diagnostic #    342  TRAC14       Counter:       1   Parms: SMR     MR      
 Computing Diagnostic #    356  TRAC15       Counter:       1   Parms: SMR     MR      
 Computing Diagnostic #    370  TRAC16       Counter:       1   Parms: SMR     MR      
 Computing Diagnostic #    384  TRAC17       Counter:       1   Parms: SMR     MR      
 Computing Diagnostic #    398  TRAC18       Counter:       1   Parms: SMR     MR      
 Computing Diagnostic #    412  TRAC19       Counter:       1   Parms: SMR     MR      
 Computing Diagnostic #    426  TRAC20       Counter:       1   Parms: SMR     MR      
 Computing Diagnostic #    440  TRAC21       Counter:       1   Parms: SMR     MR      
 Computing Diagnostic #    454  TRAC22       Counter:       1   Parms: SMR     MR      
 Computing Diagnostic #    468  TRAC23       Counter:       1   Parms: SMR     MR      
 Computing Diagnostic #    482  TRAC24       Counter:       1   Parms: SMR     MR      
 Computing Diagnostic #    496  TRAC25       Counter:       1   Parms: SMR     MR      
 Computing Diagnostic #    510  TRAC26       Counter:       1   Parms: SMR     MR      
 Computing Diagnostic #    524  TRAC27       Counter:       1   Parms: SMR     MR      
 Computing Diagnostic #    538  TRAC28       Counter:       1   Parms: SMR     MR      
 Computing Diagnostic #    552  TRAC29       Counter:       1   Parms: SMR     MR      
 Computing Diagnostic #    566  TRAC30       Counter:       1   Parms: SMR     MR      
 Computing Diagnostic #    580  TRAC31       Counter:       1   Parms: SMR     MR      
 Computing Diagnostic #    594  TRAC32       Counter:       1   Parms: SMR     MR      
 Computing Diagnostic #    608  TRAC33       Counter:       1   Parms: SMR     MR      
 Computing Diagnostic #    622  TRAC34       Counter:       1   Parms: SMR     MR      
 Computing Diagnostic #    636  TRAC35       Counter:       1   Parms: SMR     MR      
 Computing Diagnostic #    650  TRAC36       Counter:       1   Parms: SMR     MR      
 Computing Diagnostic #    664  TRAC37       Counter:       1   Parms: SMR     MR      
 Computing Diagnostic #    678  TRAC38       Counter:       1   Parms: SMR     MR      
 Computing Diagnostic #    692  TRAC39       Counter:       1   Parms: SMR     MR      
 Computing Diagnostic #    706  TRAC40       Counter:       1   Parms: SMR     MR      
 Computing Diagnostic #    720  TRAC41       Counter:       1   Parms: SMR     MR      
 Computing Diagnostic #    734  TRAC42       Counter:       1   Parms: SMR     MR      
 Computing Diagnostic #    748  TRAC43       Counter:       1   Parms: SMR     MR      
 Computing Diagnostic #    762  TRAC44       Counter:       1   Parms: SMR     MR      
 Computing Diagnostic #    776  TRAC45       Counter:       1   Parms: SMR     MR      
 Computing Diagnostic #    790  TRAC46       Counter:       1   Parms: SMR     MR      
 Computing Diagnostic #    804  TRAC47       Counter:       1   Parms: SMR     MR      
 Computing Diagnostic #    818  TRAC48       Counter:       1   Parms: SMR     MR      
 Computing Diagnostic #    832  TRAC49       Counter:       1   Parms: SMR     MR      
 Computing Diagnostic #    846  TRAC50       Counter:       1   Parms: SMR     MR      
 Computing Diagnostic #    860  TRAC51       Counter:       1   Parms: SMR     MR      
 Computing Diagnostic #    874  TRAC52       Counter:       1   Parms: SMR     MR      
 Computing Diagnostic #    888  TRAC53       Counter:       1   Parms: SMR     MR      
 Computing Diagnostic #    902  TRAC54       Counter:       1   Parms: SMR     MR      
 Computing Diagnostic #    916  TRAC55       Counter:       1   Parms: SMR     MR      
 Computing Diagnostic #    930  TRAC56       Counter:       1   Parms: SMR     MR      
 Computing Diagnostic #    944  TRAC57       Counter:       1   Parms: SMR     MR      
 Computing Diagnostic #    958  TRAC58       Counter:       1   Parms: SMR     MR      
 Computing Diagnostic #    972  TRAC59       Counter:       1   Parms: SMR     MR      
 Computing Diagnostic #    986  TRAC60       Counter:       1   Parms: SMR     MR      
 Computing Diagnostic #   1000  TRAC61       Counter:       1   Parms: SMR     MR      
 Computing Diagnostic #   1014  TRAC62       Counter:       1   Parms: SMR     MR      
 Computing Diagnostic #   1028  TRAC63       Counter:       1   Parms: SMR     MR      
 Computing Diagnostic #   1042  TRAC64       Counter:       1   Parms: SMR     MR      
 Computing Diagnostic #   1056  TRAC65       Counter:       1   Parms: SMR     MR      
 Computing Diagnostic #   1070  TRAC66       Counter:       1   Parms: SMR     MR      
 Computing Diagnostic #   1084  TRAC67       Counter:       1   Parms: SMR     MR      
 Computing Diagnostic #   1098  TRAC68       Counter:       1   Parms: SMR     MR      
 Computing Diagnostic #   1112  TRAC69       Counter:       1   Parms: SMR     MR      
 Computing Diagnostic #   1126  TRAC70       Counter:       1   Parms: SMR     MR      
 Computing Diagnostic #   1140  TRAC71       Counter:       1   Parms: SMR     MR      
 Computing Diagnostic #   1154  TRAC72       Counter:       1   Parms: SMR     MR      
 Computing Diagnostic #   1168  TRAC73       Counter:       1   Parms: SMR     MR      
 Computing Diagnostic #   1182  TRAC74       Counter:       1   Parms: SMR     MR      
 Computing Diagnostic #   1196  TRAC75       Counter:       1   Parms: SMR     MR      
 Computing Diagnostic #   1210  TRAC76       Counter:       1   Parms: SMR     MR      
 Computing Diagnostic #   1224  TRAC77       Counter:       1   Parms: SMR     MR      
 Computing Diagnostic #   1238  TRAC78       Counter:       1   Parms: SMR     MR      
 Computing Diagnostic #   1252  TRAC79       Counter:       1   Parms: SMR     MR      
 Computing Diagnostic #   1266  TRAC80       Counter:       1   Parms: SMR     MR      
 Computing Diagnostic #   1280  TRAC81       Counter:       1   Parms: SMR     MR      
 Computing Diagnostic #   1294  TRAC82       Counter:       1   Parms: SMR     MR      
 Computing Diagnostic #   1308  TRAC83       Counter:       1   Parms: SMR     MR      
 Computing Diagnostic #   1322  TRAC84       Counter:       1   Parms: SMR     MR      
 Computing Diagnostic #   1336  TRAC85       Counter:       1   Parms: SMR     MR      
 Computing Diagnostic #   1350  TRAC86       Counter:       1   Parms: SMR     MR      
 Computing Diagnostic #   1364  TRAC87       Counter:       1   Parms: SMR     MR      
 Computing Diagnostic #   1378  TRAC88       Counter:       1   Parms: SMR     MR      
 Computing Diagnostic #   1392  TRAC89       Counter:       1   Parms: SMR     MR      
 Computing Diagnostic #   1406  TRAC90       Counter:       1   Parms: SMR     MR      
 Computing Diagnostic #   1420  TRAC91       Counter:       1   Parms: SMR     MR      
 Computing Diagnostic #   1434  TRAC92       Counter:       1   Parms: SMR     MR      
 Computing Diagnostic #   1448  TRAC93       Counter:       1   Parms: SMR     MR      
 Computing Diagnostic #   1462  TRAC94       Counter:       1   Parms: SMR     MR      
 Computing Diagnostic #   1476  TRAC95       Counter:       1   Parms: SMR     MR      
 Computing Diagnostic #   1490  TRAC96       Counter:       1   Parms: SMR     MR      
 Computing Diagnostic #   1504  TRAC97       Counter:       1   Parms: SMR     MR      
 Computing Diagnostic #   1518  TRAC98       Counter:       1   Parms: SMR     MR      
 Computing Diagnostic #   1532  TRAC99       Counter:       1   Parms: SMR     MR      
 Computing Diagnostic #   1546  TRAC0a       Counter:       1   Parms: SMR     MR      
 Computing Diagnostic #   1560  TRAC0b       Counter:       1   Parms: SMR     MR      
 Computing Diagnostic #   1574  TRAC0c       Counter:       1   Parms: SMR     MR      
 Computing Diagnostic #   1588  TRAC0d       Counter:       1   Parms: SMR     MR      
 Computing Diagnostic #   1602  TRAC0e       Counter:       1   Parms: SMR     MR      
 Computing Diagnostic #   1616  TRAC0f       Counter:       1   Parms: SMR     MR      
 Computing Diagnostic #   1630  TRAC0g       Counter:       1   Parms: SMR     MR      
 Computing Diagnostic #   1644  TRAC0h       Counter:       1   Parms: SMR     MR      
 Computing Diagnostic #   1658  TRAC0i       Counter:       1   Parms: SMR     MR      
 Computing Diagnostic #   1672  TRAC0j       Counter:       1   Parms: SMR     MR      
 Computing Diagnostic #   1686  TRAC0k       Counter:       1   Parms: SMR     MR      
 Computing Diagnostic #   1700  TRAC0l       Counter:       1   Parms: SMR     MR      
 Computing Diagnostic #   1714  TRAC0m       Counter:       1   Parms: SMR     MR      
 Computing Diagnostic #   1728  TRAC0n       Counter:       1   Parms: SMR     MR      
 Computing Diagnostic #    160  TRAC01       Counter:       1   Parms: SMR     MR      
 Computing Diagnostic #   1742  TRAC0o       Counter:       1   Parms: SMR     MR      
 Computing Diagnostic #   1770  TRAC0q       Counter:       1   Parms: SMR     MR      
 Computing Diagnostic #   1784  TRAC0r       Counter:       1   Parms: SMR     MR      
 Computing Diagnostic #   1798  TRAC0s       Counter:       1   Parms: SMR     MR      
 Computing Diagnostic #   1812  TRAC0t       Counter:       1   Parms: SMR     MR      
 Computing Diagnostic #   1826  TRAC0u       Counter:       1   Parms: SMR     MR      
 Computing Diagnostic #   1840  TRAC0v       Counter:       1   Parms: SMR     MR      
 Computing Diagnostic #   1854  TRAC0w       Counter:       1   Parms: SMR     MR      
 Computing Diagnostic #   1868  TRAC0x       Counter:       1   Parms: SMR     MR      
 Computing Diagnostic #   1882  TRAC0y       Counter:       1   Parms: SMR     MR      
 Computing Diagnostic #   1896  TRAC0z       Counter:       1   Parms: SMR     MR      
 Computing Diagnostic #   1910  TRAC0A       Counter:       1   Parms: SMR     MR      
 Computing Diagnostic #   1924  TRAC0B       Counter:       1   Parms: SMR     MR      
 Computing Diagnostic #   1938  TRAC0C       Counter:       1   Parms: SMR     MR      
 Computing Diagnostic #   1952  TRAC0D       Counter:       1   Parms: SMR     MR      
 Computing Diagnostic #   1966  TRAC0E       Counter:       1   Parms: SMR     MR      
 Computing Diagnostic #   1980  TRAC0F       Counter:       1   Parms: SMR     MR      
 Computing Diagnostic #   1994  TRAC0G       Counter:       1   Parms: SMR     MR      
 Computing Diagnostic #   2008  TRAC0H       Counter:       1   Parms: SMR     MR      
 Computing Diagnostic #   2022  TRAC0I       Counter:       1   Parms: SMR     MR      
 Computing Diagnostic #   2036  TRAC0J       Counter:       1   Parms: SMR     MR      
 Computing Diagnostic #   2050  TRAC0K       Counter:       1   Parms: SMR     MR      
 Computing Diagnostic #   2064  TRAC0L       Counter:       1   Parms: SMR     MR      
 Computing Diagnostic #   2078  TRAC0M       Counter:       1   Parms: SMR     MR      
 Computing Diagnostic #   2092  TRAC0N       Counter:       1   Parms: SMR     MR      
 Computing Diagnostic #    160  TRAC01       Counter:       1   Parms: SMR     MR      
 Computing Diagnostic #   2106  TRAC0O       Counter:       1   Parms: SMR     MR      
 Computing Diagnostic #   2134  TRAC0Q       Counter:       1   Parms: SMR     MR      
 Computing Diagnostic #   2148  TRAC0R       Counter:       1   Parms: SMR     MR      
 Computing Diagnostic #   2162  TRAC0S       Counter:       1   Parms: SMR     MR      
 Computing Diagnostic #   2176  TRAC0T       Counter:       1   Parms: SMR     MR      
 Computing Diagnostic #   2190  TRAC0U       Counter:       1   Parms: SMR     MR      
 Computing Diagnostic #   2204  TRAC0V       Counter:       1   Parms: SMR     MR      
 Computing Diagnostic #   2218  TRAC0W       Counter:       1   Parms: SMR     MR      
 Computing Diagnostic #   2232  TRAC0X       Counter:       1   Parms: SMR     MR      
 Computing Diagnostic #   2246  TRAC0Y       Counter:       1   Parms: SMR     MR      
 Computing Diagnostic #   2260  TRAC0Z       Counter:       1   Parms: SMR     MR      
 Computing Diagnostic #   2274  TRAC1a       Counter:       1   Parms: SMR     MR      
 Computing Diagnostic #   2288  TRAC1b       Counter:       1   Parms: SMR     MR      
 Computing Diagnostic #   2302  TRAC1c       Counter:       1   Parms: SMR     MR      
 Computing Diagnostic #   2316  TRAC1d       Counter:       1   Parms: SMR     MR      
 Computing Diagnostic #   2330  TRAC1e       Counter:       1   Parms: SMR     MR      
 Computing Diagnostic #   2344  TRAC1f       Counter:       1   Parms: SMR     MR      
 Computing Diagnostic #   2358  TRAC1g       Counter:       1   Parms: SMR     MR      
 Computing Diagnostic #   2372  TRAC1h       Counter:       1   Parms: SMR     MR      
 Computing Diagnostic #   2386  TRAC1i       Counter:       1   Parms: SMR     MR      
 Computing Diagnostic #   2400  TRAC1j       Counter:       1   Parms: SMR     MR      
 Computing Diagnostic #   2414  TRAC1k       Counter:       1   Parms: SMR     MR      
 Computing Diagnostic #   2428  TRAC1l       Counter:       1   Parms: SMR     MR      
 Computing Diagnostic #   2442  TRAC1m       Counter:       1   Parms: SMR     MR      
 Computing Diagnostic #   2456  TRAC1n       Counter:       1   Parms: SMR     MR      
 Computing Diagnostic #    300  TRAC11       Counter:       1   Parms: SMR     MR      
 Computing Diagnostic #   2470  TRAC1o       Counter:       1   Parms: SMR     MR      
 Computing Diagnostic #   2498  TRAC1q       Counter:       1   Parms: SMR     MR      
 Computing Diagnostic #   2512  TRAC1r       Counter:       1   Parms: SMR     MR      
 Computing Diagnostic #   2526  TRAC1s       Counter:       1   Parms: SMR     MR      
 Computing Diagnostic #   2540  TRAC1t       Counter:       1   Parms: SMR     MR      
 Computing Diagnostic #   2554  TRAC1u       Counter:       1   Parms: SMR     MR      
 Computing Diagnostic #   2568  TRAC1v       Counter:       1   Parms: SMR     MR      
 Computing Diagnostic #   2582  TRAC1w       Counter:       1   Parms: SMR     MR      
 Computing Diagnostic #   2596  TRAC1x       Counter:       1   Parms: SMR     MR      
 Computing Diagnostic #   2610  TRAC1y       Counter:       1   Parms: SMR     MR      
 Computing Diagnostic #   2624  TRAC1z       Counter:       1   Parms: SMR     MR      
 Computing Diagnostic #   2638  TRAC1A       Counter:       1   Parms: SMR     MR      
 Computing Diagnostic #   2652  TRAC1B       Counter:       1   Parms: SMR     MR      
 Computing Diagnostic #   2666  TRAC1C       Counter:       1   Parms: SMR     MR      
 Computing Diagnostic #   2680  TRAC1D       Counter:       1   Parms: SMR     MR      
 Computing Diagnostic #   2694  TRAC1E       Counter:       1   Parms: SMR     MR      
 Computing Diagnostic #   2708  TRAC1F       Counter:       1   Parms: SMR     MR      
 Computing Diagnostic #   2722  TRAC1G       Counter:       1   Parms: SMR     MR      
 Computing Diagnostic #   2736  TRAC1H       Counter:       1   Parms: SMR     MR      
 Computing Diagnostic #   2750  TRAC1I       Counter:       1   Parms: SMR     MR      
 Computing Diagnostic #   2764  TRAC1J       Counter:       1   Parms: SMR     MR      
 Computing Diagnostic #   2778  TRAC1K       Counter:       1   Parms: SMR     MR      
 Computing Diagnostic #   2792  TRAC1L       Counter:       1   Parms: SMR     MR      
 Computing Diagnostic #   2806  TRAC1M       Counter:       1   Parms: SMR     MR      
 Computing Diagnostic #   2820  TRAC1N       Counter:       1   Parms: SMR     MR      
 Computing Diagnostic #    300  TRAC11       Counter:       1   Parms: SMR     MR      
 Computing Diagnostic #   2834  TRAC1O       Counter:       1   Parms: SMR     MR      
 Computing Diagnostic #   2862  TRAC1Q       Counter:       1   Parms: SMR     MR      
 Computing Diagnostic #   2876  TRAC1R       Counter:       1   Parms: SMR     MR      
 Computing Diagnostic #   2890  TRAC1S       Counter:       1   Parms: SMR     MR      
 Computing Diagnostic #   2904  TRAC1T       Counter:       1   Parms: SMR     MR      
 Computing Diagnostic #   2918  TRAC1U       Counter:       1   Parms: SMR     MR      
 Computing Diagnostic #   2932  TRAC1V       Counter:       1   Parms: SMR     MR      
 Computing Diagnostic #   2946  TRAC1W       Counter:       1   Parms: SMR     MR      
 Computing Diagnostic #   2960  TRAC1X       Counter:       1   Parms: SMR     MR      
 Computing Diagnostic #   2974  TRAC1Y       Counter:       1   Parms: SMR     MR      
 Computing Diagnostic #   2988  TRAC1Z       Counter:       1   Parms: SMR     MR      
 Computing Diagnostic #   3002  TRAC2a       Counter:       1   Parms: SMR     MR      
 Computing Diagnostic #   3016  TRAC2b       Counter:       1   Parms: SMR     MR      
 Computing Diagnostic #   3030  TRAC2c       Counter:       1   Parms: SMR     MR      
 Computing Diagnostic #   3044  TRAC2d       Counter:       1   Parms: SMR     MR      
 Computing Diagnostic #   3058  TRAC2e       Counter:       1   Parms: SMR     MR      
 Computing Diagnostic #   3072  TRAC2f       Counter:       1   Parms: SMR     MR      
 Computing Diagnostic #   3086  TRAC2g       Counter:       1   Parms: SMR     MR      
 Computing Diagnostic #   3100  TRAC2h       Counter:       1   Parms: SMR     MR      
 Computing Diagnostic #   3114  TRAC2i       Counter:       1   Parms: SMR     MR      
 Computing Diagnostic #   3128  TRAC2j       Counter:       1   Parms: SMR     MR      
 Computing Diagnostic #   3142  TRAC2k       Counter:       1   Parms: SMR     MR      
 Computing Diagnostic #   3156  TRAC2l       Counter:       1   Parms: SMR     MR      
 Computing Diagnostic #   3170  TRAC2m       Counter:       1   Parms: SMR     MR      
 Computing Diagnostic #   3184  TRAC2n       Counter:       1   Parms: SMR     MR      
 Computing Diagnostic #    440  TRAC21       Counter:       1   Parms: SMR     MR      
 Computing Diagnostic #   3198  TRAC2o       Counter:       1   Parms: SMR     MR      
 Computing Diagnostic #   3226  TRAC2q       Counter:       1   Parms: SMR     MR      
 Computing Diagnostic #   3240  TRAC2r       Counter:       1   Parms: SMR     MR      
 Computing Diagnostic #   3254  TRAC2s       Counter:       1   Parms: SMR     MR      
 Computing Diagnostic #   3268  TRAC2t       Counter:       1   Parms: SMR     MR      
 Computing Diagnostic #   3282  TRAC2u       Counter:       1   Parms: SMR     MR      
 Computing Diagnostic #   3296  TRAC2v       Counter:       1   Parms: SMR     MR      
 Computing Diagnostic #   3310  TRAC2w       Counter:       1   Parms: SMR     MR      
 Computing Diagnostic #   3324  TRAC2x       Counter:       1   Parms: SMR     MR      
 Computing Diagnostic #   3338  TRAC2y       Counter:       1   Parms: SMR     MR      
 Computing Diagnostic #   3352  TRAC2z       Counter:       1   Parms: SMR     MR      
 Computing Diagnostic #   3366  TRAC2A       Counter:       1   Parms: SMR     MR      
 Computing Diagnostic #   3380  TRAC2B       Counter:       1   Parms: SMR     MR      
 Computing Diagnostic #   3394  TRAC2C       Counter:       1   Parms: SMR     MR      
 Computing Diagnostic #   3408  TRAC2D       Counter:       1   Parms: SMR     MR      
 Computing Diagnostic #   3430  PAR01        Counter:       1   Parms: SM P    MR      
 Computing Diagnostic #   3423  PP           Counter:       1   Parms: SM P    MR      
 Computing Diagnostic #   3424  Nfix         Counter:       1   Parms: SM P    MR      
 Computing Diagnostic #   3425  Denit        Counter:       1   Parms: SM P    MR      
 Compute Stats, Diag. #   3423  PP        vol(   0 ): 3.081E+13  Parms: SM P    MR      
 Compute Stats, Diag. #   3424  Nfix      vol(   0 ): 3.081E+13  Parms: SM P    MR      
 Compute Stats, Diag. #   3425  Denit     vol(   0 ): 3.081E+13  Parms: SM P    MR      
(PID.TID 0000.0001) DIAGSTATS_CLOSE_IO: close file: statsPP.0000000000.txt , unit=     9
(PID.TID 0000.0001) DIAGSTATS_CLOSE_IO: close file: statsNfix.0000000000.txt , unit=    10
(PID.TID 0000.0001) DIAGSTATS_CLOSE_IO: close file: statsDenit.0000000000.txt , unit=    16
 prec           1          64
(PID.TID 0000.0001) %CHECKPOINT         4 ckptA
(PID.TID 0000.0001)   Seconds in section "ALL                    [THE_MODEL_MAIN]":
(PID.TID 0000.0001)           User time:   21.379999999999999
(PID.TID 0000.0001)         System time:  0.19999999999999998
(PID.TID 0000.0001)     Wall clock time:   21.668203115463257
(PID.TID 0000.0001)          No. starts:           1
(PID.TID 0000.0001)           No. stops:           1
(PID.TID 0000.0001)   Seconds in section "INITIALISE_FIXED       [THE_MODEL_MAIN]":
(PID.TID 0000.0001)           User time:   6.6699999999999999
(PID.TID 0000.0001)         System time:  0.11000000000000000
(PID.TID 0000.0001)     Wall clock time:   6.7929158210754395
(PID.TID 0000.0001)          No. starts:           1
(PID.TID 0000.0001)           No. stops:           1
(PID.TID 0000.0001)   Seconds in section "THE_MAIN_LOOP          [THE_MODEL_MAIN]":
(PID.TID 0000.0001)           User time:   14.710000000000001
(PID.TID 0000.0001)         System time:   8.9999999999999997E-002
(PID.TID 0000.0001)     Wall clock time:   14.870767116546631
(PID.TID 0000.0001)          No. starts:           1
(PID.TID 0000.0001)           No. stops:           1
(PID.TID 0000.0001)   Seconds in section "INITIALISE_VARIA    [THE_MAIN_LOOP]":
(PID.TID 0000.0001)           User time:  0.19000000000000039
(PID.TID 0000.0001)         System time:   2.0000000000000018E-002
(PID.TID 0000.0001)     Wall clock time:  0.22053408622741699
(PID.TID 0000.0001)          No. starts:           1
(PID.TID 0000.0001)           No. stops:           1
(PID.TID 0000.0001)   Seconds in section "MAIN LOOP           [THE_MAIN_LOOP]":
(PID.TID 0000.0001)           User time:   14.520000000000000
(PID.TID 0000.0001)         System time:   6.9999999999999979E-002
(PID.TID 0000.0001)     Wall clock time:   14.650203943252563
(PID.TID 0000.0001)          No. starts:           1
(PID.TID 0000.0001)           No. stops:           1
(PID.TID 0000.0001)   Seconds in section "MAIN_DO_LOOP        [THE_MAIN_LOOP]":
(PID.TID 0000.0001)           User time:   14.520000000000003
(PID.TID 0000.0001)         System time:   6.9999999999999979E-002
(PID.TID 0000.0001)     Wall clock time:   14.650159835815430
(PID.TID 0000.0001)          No. starts:           4
(PID.TID 0000.0001)           No. stops:           4
(PID.TID 0000.0001)   Seconds in section "FORWARD_STEP        [MAIN_DO_LOOP]":
(PID.TID 0000.0001)           User time:   14.520000000000003
(PID.TID 0000.0001)         System time:   6.9999999999999979E-002
(PID.TID 0000.0001)     Wall clock time:   14.650090217590332
(PID.TID 0000.0001)          No. starts:           4
(PID.TID 0000.0001)           No. stops:           4
(PID.TID 0000.0001)   Seconds in section "DO_STATEVARS_DIAGS  [FORWARD_STEP]":
(PID.TID 0000.0001)           User time:   9.9999999999980105E-003
(PID.TID 0000.0001)         System time:   0.0000000000000000
(PID.TID 0000.0001)     Wall clock time:   1.9298553466796875E-002
(PID.TID 0000.0001)          No. starts:           8
(PID.TID 0000.0001)           No. stops:           8
(PID.TID 0000.0001)   Seconds in section "LOAD_FIELDS_DRIVER  [FORWARD_STEP]":
(PID.TID 0000.0001)           User time:   0.0000000000000000
(PID.TID 0000.0001)         System time:   0.0000000000000000
(PID.TID 0000.0001)     Wall clock time:   3.7908554077148438E-003
(PID.TID 0000.0001)          No. starts:           4
(PID.TID 0000.0001)           No. stops:           4
(PID.TID 0000.0001)   Seconds in section "EXF_GETFORCING     [LOAD_FLDS_DRIVER]":
(PID.TID 0000.0001)           User time:   0.0000000000000000
(PID.TID 0000.0001)         System time:   0.0000000000000000
(PID.TID 0000.0001)     Wall clock time:   1.9242763519287109E-003
(PID.TID 0000.0001)          No. starts:           4
(PID.TID 0000.0001)           No. stops:           4
(PID.TID 0000.0001)   Seconds in section "EXTERNAL_FLDS_LOAD [LOAD_FLDS_DRIVER]":
(PID.TID 0000.0001)           User time:   0.0000000000000000
(PID.TID 0000.0001)         System time:   0.0000000000000000
(PID.TID 0000.0001)     Wall clock time:   1.4021396636962891E-003
(PID.TID 0000.0001)          No. starts:           4
(PID.TID 0000.0001)           No. stops:           4
(PID.TID 0000.0001)   Seconds in section "DO_ATMOSPHERIC_PHYS [FORWARD_STEP]":
(PID.TID 0000.0001)           User time:   0.0000000000000000
(PID.TID 0000.0001)         System time:   0.0000000000000000
(PID.TID 0000.0001)     Wall clock time:   3.8146972656250000E-005
(PID.TID 0000.0001)          No. starts:           4
(PID.TID 0000.0001)           No. stops:           4
(PID.TID 0000.0001)   Seconds in section "DO_OCEANIC_PHYS     [FORWARD_STEP]":
(PID.TID 0000.0001)           User time:   2.0000000000003126E-002
(PID.TID 0000.0001)         System time:   0.0000000000000000
(PID.TID 0000.0001)     Wall clock time:   5.0237178802490234E-003
(PID.TID 0000.0001)          No. starts:           4
(PID.TID 0000.0001)           No. stops:           4
(PID.TID 0000.0001)   Seconds in section "KPP_CALC [DO_OCEANIC_PHYS]":
(PID.TID 0000.0001)           User time:   1.0000000000001563E-002
(PID.TID 0000.0001)         System time:   0.0000000000000000
(PID.TID 0000.0001)     Wall clock time:   4.0020942687988281E-003
(PID.TID 0000.0001)          No. starts:           4
(PID.TID 0000.0001)           No. stops:           4
(PID.TID 0000.0001)   Seconds in section "GCHEM_CALC_TENDENCY [FORWARD_STEP]":
(PID.TID 0000.0001)           User time:   0.0000000000000000
(PID.TID 0000.0001)         System time:   0.0000000000000000
(PID.TID 0000.0001)     Wall clock time:   3.6001205444335938E-005
(PID.TID 0000.0001)          No. starts:           4
(PID.TID 0000.0001)           No. stops:           4
(PID.TID 0000.0001)   Seconds in section "THERMODYNAMICS      [FORWARD_STEP]":
(PID.TID 0000.0001)           User time:  0.57000000000000028
(PID.TID 0000.0001)         System time:   0.0000000000000000
(PID.TID 0000.0001)     Wall clock time:  0.58782911300659180
(PID.TID 0000.0001)          No. starts:           4
(PID.TID 0000.0001)           No. stops:           4
(PID.TID 0000.0001)   Seconds in section "TRC_CORRECTION_STEP [FORWARD_STEP]":
(PID.TID 0000.0001)           User time:   0.0000000000000000
(PID.TID 0000.0001)         System time:   0.0000000000000000
(PID.TID 0000.0001)     Wall clock time:   4.3153762817382812E-005
(PID.TID 0000.0001)          No. starts:           4
(PID.TID 0000.0001)           No. stops:           4
(PID.TID 0000.0001)   Seconds in section "GCHEM_FORCING_SEP  [FORWARD_STEP]":
(PID.TID 0000.0001)           User time:   5.0000000000000711E-002
(PID.TID 0000.0001)         System time:   0.0000000000000000
(PID.TID 0000.0001)     Wall clock time:   4.7047615051269531E-002
(PID.TID 0000.0001)          No. starts:           4
(PID.TID 0000.0001)           No. stops:           4
(PID.TID 0000.0001)   Seconds in section "GCHEM_DIAGNOSTICS [GCHEM_FORCING_SEP]":
(PID.TID 0000.0001)           User time:   9.9999999999980105E-003
(PID.TID 0000.0001)         System time:   0.0000000000000000
(PID.TID 0000.0001)     Wall clock time:   3.8290023803710938E-003
(PID.TID 0000.0001)          No. starts:           4
(PID.TID 0000.0001)           No. stops:           4
(PID.TID 0000.0001)   Seconds in section "GUD_CONS [GCHEM_FORCING_SEP]":
(PID.TID 0000.0001)           User time:   0.0000000000000000
(PID.TID 0000.0001)         System time:   0.0000000000000000
(PID.TID 0000.0001)     Wall clock time:   9.1791152954101562E-004
(PID.TID 0000.0001)          No. starts:           8
(PID.TID 0000.0001)           No. stops:           8
(PID.TID 0000.0001)   Seconds in section "GCHEM_SURFMEAN [GCHEM_FORCING_SEP]":
(PID.TID 0000.0001)           User time:   0.0000000000000000
(PID.TID 0000.0001)         System time:   0.0000000000000000
(PID.TID 0000.0001)     Wall clock time:   4.6014785766601562E-005
(PID.TID 0000.0001)          No. starts:           4
(PID.TID 0000.0001)           No. stops:           4
(PID.TID 0000.0001)   Seconds in section "GUD_FORCING [GCHEM_FORCING_SEP]":
(PID.TID 0000.0001)           User time:   3.9999999999999147E-002
(PID.TID 0000.0001)         System time:   0.0000000000000000
(PID.TID 0000.0001)     Wall clock time:   4.2034149169921875E-002
(PID.TID 0000.0001)          No. starts:           4
(PID.TID 0000.0001)           No. stops:           4
(PID.TID 0000.0001)   Seconds in section "GUD_LIGHT [GUD_FORCING]":
(PID.TID 0000.0001)           User time:   0.0000000000000000
(PID.TID 0000.0001)         System time:   0.0000000000000000
(PID.TID 0000.0001)     Wall clock time:   1.0051727294921875E-003
(PID.TID 0000.0001)          No. starts:           4
(PID.TID 0000.0001)           No. stops:           4
(PID.TID 0000.0001)   Seconds in section "GUD_SURFFORCING [GUD_FORCING]":
(PID.TID 0000.0001)           User time:   0.0000000000000000
(PID.TID 0000.0001)         System time:   0.0000000000000000
(PID.TID 0000.0001)     Wall clock time:   4.1031837463378906E-004
(PID.TID 0000.0001)          No. starts:           4
(PID.TID 0000.0001)           No. stops:           4
(PID.TID 0000.0001)   Seconds in section "GUD_FE_CHEM [GUD_FORCING]":
(PID.TID 0000.0001)           User time:   0.0000000000000000
(PID.TID 0000.0001)         System time:   0.0000000000000000
(PID.TID 0000.0001)     Wall clock time:   1.2278556823730469E-004
(PID.TID 0000.0001)          No. starts:           8
(PID.TID 0000.0001)           No. stops:           8
(PID.TID 0000.0001)   Seconds in section "GUD_FE_DUST [GUD_FORCING]":
(PID.TID 0000.0001)           User time:   0.0000000000000000
(PID.TID 0000.0001)         System time:   0.0000000000000000
(PID.TID 0000.0001)     Wall clock time:   3.6954879760742188E-005
(PID.TID 0000.0001)          No. starts:           4
(PID.TID 0000.0001)           No. stops:           4
(PID.TID 0000.0001)   Seconds in section "GUD_FE_SCAV [GUD_FORCING]":
(PID.TID 0000.0001)           User time:   0.0000000000000000
(PID.TID 0000.0001)         System time:   0.0000000000000000
(PID.TID 0000.0001)     Wall clock time:   6.9856643676757812E-005
(PID.TID 0000.0001)          No. starts:           4
(PID.TID 0000.0001)           No. stops:           4
(PID.TID 0000.0001)   Seconds in section "GUD_FE_SED [GUD_FORCING]":
(PID.TID 0000.0001)           User time:   0.0000000000000000
(PID.TID 0000.0001)         System time:   0.0000000000000000
(PID.TID 0000.0001)     Wall clock time:   3.8862228393554688E-005
(PID.TID 0000.0001)          No. starts:           4
(PID.TID 0000.0001)           No. stops:           4
(PID.TID 0000.0001)   Seconds in section "GUD_MODEL [GUD_FORCING]":
(PID.TID 0000.0001)           User time:   9.9999999999980105E-003
(PID.TID 0000.0001)         System time:   0.0000000000000000
(PID.TID 0000.0001)     Wall clock time:   5.4469108581542969E-003
(PID.TID 0000.0001)          No. starts:           4
(PID.TID 0000.0001)           No. stops:           4
(PID.TID 0000.0001)   Seconds in section "GUD_SINKING [GUD_FORCING]":
(PID.TID 0000.0001)           User time:   3.0000000000001137E-002
(PID.TID 0000.0001)         System time:   0.0000000000000000
(PID.TID 0000.0001)     Wall clock time:   3.2045841217041016E-002
(PID.TID 0000.0001)          No. starts:           4
(PID.TID 0000.0001)           No. stops:           4
(PID.TID 0000.0001)   Seconds in section "GUD_STEP [GUD_FORCING]":
(PID.TID 0000.0001)           User time:   0.0000000000000000
(PID.TID 0000.0001)         System time:   0.0000000000000000
(PID.TID 0000.0001)     Wall clock time:   6.5994262695312500E-004
(PID.TID 0000.0001)          No. starts:           4
(PID.TID 0000.0001)           No. stops:           4
(PID.TID 0000.0001)   Seconds in section "DIAGS_FILL [GUD_FORCING]":
(PID.TID 0000.0001)           User time:   0.0000000000000000
(PID.TID 0000.0001)         System time:   0.0000000000000000
(PID.TID 0000.0001)     Wall clock time:   3.4594535827636719E-004
(PID.TID 0000.0001)          No. starts:           4
(PID.TID 0000.0001)           No. stops:           4
(PID.TID 0000.0001)   Seconds in section "BLOCKING_EXCHANGES  [FORWARD_STEP]":
(PID.TID 0000.0001)           User time:   2.9999999999997584E-002
(PID.TID 0000.0001)         System time:   0.0000000000000000
(PID.TID 0000.0001)     Wall clock time:   2.2326707839965820E-002
(PID.TID 0000.0001)          No. starts:           4
(PID.TID 0000.0001)           No. stops:           4
(PID.TID 0000.0001)   Seconds in section "DO_STATEVARS_TAVE   [FORWARD_STEP]":
(PID.TID 0000.0001)           User time:   0.0000000000000000
(PID.TID 0000.0001)         System time:   0.0000000000000000
(PID.TID 0000.0001)     Wall clock time:   8.7785720825195312E-004
(PID.TID 0000.0001)          No. starts:           4
(PID.TID 0000.0001)           No. stops:           4
(PID.TID 0000.0001)   Seconds in section "MONITOR             [FORWARD_STEP]":
(PID.TID 0000.0001)           User time:   0.0000000000000000
(PID.TID 0000.0001)         System time:   0.0000000000000000
(PID.TID 0000.0001)     Wall clock time:   2.9778480529785156E-003
(PID.TID 0000.0001)          No. starts:           4
(PID.TID 0000.0001)           No. stops:           4
(PID.TID 0000.0001)   Seconds in section "DO_THE_MODEL_IO     [FORWARD_STEP]":
(PID.TID 0000.0001)           User time:   13.830000000000002
(PID.TID 0000.0001)         System time:   4.9999999999999989E-002
(PID.TID 0000.0001)     Wall clock time:   13.891277790069580
(PID.TID 0000.0001)          No. starts:           4
(PID.TID 0000.0001)           No. stops:           4
(PID.TID 0000.0001)   Seconds in section "PTRACERS_RESET      [FORWARD_STEP]":
(PID.TID 0000.0001)           User time:   0.0000000000000000
(PID.TID 0000.0001)         System time:   0.0000000000000000
(PID.TID 0000.0001)     Wall clock time:   3.8862228393554688E-005
(PID.TID 0000.0001)          No. starts:           4
(PID.TID 0000.0001)           No. stops:           4
(PID.TID 0000.0001)   Seconds in section "DO_WRITE_PICKUP     [FORWARD_STEP]":
(PID.TID 0000.0001)           User time:   9.9999999999980105E-003
(PID.TID 0000.0001)         System time:   1.9999999999999990E-002
(PID.TID 0000.0001)     Wall clock time:   6.8884134292602539E-002
(PID.TID 0000.0001)          No. starts:           4
(PID.TID 0000.0001)           No. stops:           4
(PID.TID 0000.0001) // ======================================================
(PID.TID 0000.0001) // Tile <-> Tile communication statistics
(PID.TID 0000.0001) // ======================================================
(PID.TID 0000.0001) // o Tile number: 000001
(PID.TID 0000.0001) //         No. X exchanges =              0
(PID.TID 0000.0001) //            Max. X spins =              0
(PID.TID 0000.0001) //            Min. X spins =     1000000000
(PID.TID 0000.0001) //          Total. X spins =              0
(PID.TID 0000.0001) //            Avg. X spins =       0.00E+00
(PID.TID 0000.0001) //         No. Y exchanges =              0
(PID.TID 0000.0001) //            Max. Y spins =              0
(PID.TID 0000.0001) //            Min. Y spins =     1000000000
(PID.TID 0000.0001) //          Total. Y spins =              0
(PID.TID 0000.0001) //            Avg. Y spins =       0.00E+00
(PID.TID 0000.0001) // o Thread number: 000001
(PID.TID 0000.0001) //            No. barriers =          49606
(PID.TID 0000.0001) //      Max. barrier spins =              1
(PID.TID 0000.0001) //      Min. barrier spins =              1
(PID.TID 0000.0001) //     Total barrier spins =          49606
(PID.TID 0000.0001) //      Avg. barrier spins =       1.00E+00
PROGRAM MAIN: Execution ended Normally
