(PID.TID 0000.0001) 
(PID.TID 0000.0001) // ======================================================
(PID.TID 0000.0001) //                      MITgcm UV
(PID.TID 0000.0001) //                      =========
(PID.TID 0000.0001) // ======================================================
(PID.TID 0000.0001) // execution environment starting up...
(PID.TID 0000.0001) 
(PID.TID 0000.0001) // Build user:        jahn
(PID.TID 0000.0001) // Build host:        node204
(PID.TID 0000.0001) // Build date:        Fri May  2 12:40:06 EDT 2014
(PID.TID 0000.0001) 
(PID.TID 0000.0001) // =======================================================
(PID.TID 0000.0001) // Execution Environment parameter file "eedata"
(PID.TID 0000.0001) // =======================================================
(PID.TID 0000.0001) ># Example "eedata" file
(PID.TID 0000.0001) ># Lines beginning "#" are comments
(PID.TID 0000.0001) ># nTx - No. threads per process in X
(PID.TID 0000.0001) ># nTy - No. threads per process in Y
(PID.TID 0000.0001) > &EEPARMS
(PID.TID 0000.0001) > nTx=1,nTy=1
(PID.TID 0000.0001) > /
(PID.TID 0000.0001) ># Note: Some systems use & as the
(PID.TID 0000.0001) ># namelist terminator. Other systems
(PID.TID 0000.0001) ># use a / character (as shown here).
(PID.TID 0000.0001) 
(PID.TID 0000.0001) // =======================================================
(PID.TID 0000.0001) // Computational Grid Specification ( see files "SIZE.h" )
(PID.TID 0000.0001) //                                  ( and "eedata"       )
(PID.TID 0000.0001) // =======================================================
(PID.TID 0000.0001)      nPx =    1 ; /* No. processes in X */
(PID.TID 0000.0001)      nPy =    1 ; /* No. processes in Y */
(PID.TID 0000.0001)      nSx =    2 ; /* No. tiles in X per process */
(PID.TID 0000.0001)      nSy =    1 ; /* No. tiles in Y per process */
(PID.TID 0000.0001)      sNx =   64 ; /* Tile size in X */
(PID.TID 0000.0001)      sNy =   64 ; /* Tile size in Y */
(PID.TID 0000.0001)      OLx =    4 ; /* Tile overlap distance in X */
(PID.TID 0000.0001)      OLy =    4 ; /* Tile overlap distance in Y */
(PID.TID 0000.0001)      nTx =    1 ; /* No. threads in X per process */
(PID.TID 0000.0001)      nTy =    1 ; /* No. threads in Y per process */
(PID.TID 0000.0001)       Nr =   15 ; /* No. levels in the vertical   */
(PID.TID 0000.0001)       Nx =  128 ; /* Total domain size in X ( = nPx*nSx*sNx ) */
(PID.TID 0000.0001)       Ny =   64 ; /* Total domain size in Y ( = nPy*nSy*sNy ) */
(PID.TID 0000.0001)   nTiles =    2 ; /* Total no. tiles per process ( = nSx*nSy ) */
(PID.TID 0000.0001)   nProcs =    1 ; /* Total no. processes ( = nPx*nPy ) */
(PID.TID 0000.0001) nThreads =    1 ; /* Total no. threads per process ( = nTx*nTy ) */
(PID.TID 0000.0001) usingMPI =    F ; /* Flag used to control whether MPI is in use */
(PID.TID 0000.0001)                   /*  note: To execute a program with MPI calls */
(PID.TID 0000.0001)                   /*  it must be launched appropriately e.g     */
(PID.TID 0000.0001)                   /*  "mpirun -np 64 ......"                    */
(PID.TID 0000.0001) useCoupler=    F ;/* Flag used to control communications with   */
(PID.TID 0000.0001)                   /*  other model components, through a coupler */
(PID.TID 0000.0001) debugMode =    F ; /* print debug msg. (sequence of S/R calls)  */
(PID.TID 0000.0001) printMapIncludesZeros=    F ; /* print zeros in Std.Output maps */
(PID.TID 0000.0001) maxLengthPrt1D=   65 /* maxLength of 1D array printed to StdOut */
(PID.TID 0000.0001) 
(PID.TID 0000.0001) // ======================================================
(PID.TID 0000.0001) // Mapping of tiles to threads
(PID.TID 0000.0001) // ======================================================
(PID.TID 0000.0001) // -o- Thread   1, tiles (   1:   2,   1:   1)
(PID.TID 0000.0001) 
(PID.TID 0000.0001) // ======================================================
(PID.TID 0000.0001) // Tile <-> Tile connectvity table
(PID.TID 0000.0001) // ======================================================
(PID.TID 0000.0001) // Tile number: 000001 (process no. = 000000)
(PID.TID 0000.0001) //        WEST: Tile = 000002, Process = 000000, Comm = put
(PID.TID 0000.0001) //                bi = 000002, bj = 000001
(PID.TID 0000.0001) //        EAST: Tile = 000002, Process = 000000, Comm = put
(PID.TID 0000.0001) //                bi = 000002, bj = 000001
(PID.TID 0000.0001) //       SOUTH: Tile = 000001, Process = 000000, Comm = put
(PID.TID 0000.0001) //                bi = 000001, bj = 000001
(PID.TID 0000.0001) //       NORTH: Tile = 000001, Process = 000000, Comm = put
(PID.TID 0000.0001) //                bi = 000001, bj = 000001
(PID.TID 0000.0001) // Tile number: 000002 (process no. = 000000)
(PID.TID 0000.0001) //        WEST: Tile = 000001, Process = 000000, Comm = put
(PID.TID 0000.0001) //                bi = 000001, bj = 000001
(PID.TID 0000.0001) //        EAST: Tile = 000001, Process = 000000, Comm = put
(PID.TID 0000.0001) //                bi = 000001, bj = 000001
(PID.TID 0000.0001) //       SOUTH: Tile = 000002, Process = 000000, Comm = put
(PID.TID 0000.0001) //                bi = 000002, bj = 000001
(PID.TID 0000.0001) //       NORTH: Tile = 000002, Process = 000000, Comm = put
(PID.TID 0000.0001) //                bi = 000002, bj = 000001
(PID.TID 0000.0001) 
(PID.TID 0000.0001)  INI_PARMS: opening model parameter file "data"
(PID.TID 0000.0001)  OPEN_COPY_DATA_FILE: opening file data
(PID.TID 0000.0001) // =======================================================
(PID.TID 0000.0001) // Parameter file "data"
(PID.TID 0000.0001) // =======================================================
(PID.TID 0000.0001) ># ====================
(PID.TID 0000.0001) ># | Model parameters |
(PID.TID 0000.0001) ># ====================
(PID.TID 0000.0001) >#
(PID.TID 0000.0001) ># Continuous equation parameters
(PID.TID 0000.0001) > &PARM01
(PID.TID 0000.0001) > tRef=15*20.,
(PID.TID 0000.0001) > sRef=15*35.,
(PID.TID 0000.0001) > viscA4=0.,
(PID.TID 0000.0001) > viscAh=5.E5,
(PID.TID 0000.0001) > diffKhT=0.E3,
(PID.TID 0000.0001) > diffKhS=0.E3,
(PID.TID 0000.0001) > viscAz=1.E-3,
(PID.TID 0000.0001) > diffKzT=5.E-5,
(PID.TID 0000.0001) > diffKzS=5.E-5,
(PID.TID 0000.0001) > beta=1.E-11,
(PID.TID 0000.0001) > f0=1.e-4,
(PID.TID 0000.0001) > tAlpha=2.E-4,
(PID.TID 0000.0001) > sBeta =7.4E-4,
(PID.TID 0000.0001) > gravity=9.81,
(PID.TID 0000.0001) > gBaro=9.81,
(PID.TID 0000.0001) > rhonil=1035.,
(PID.TID 0000.0001) > rigidLid=.FALSE.,
(PID.TID 0000.0001) > implicitFreeSurface=.TRUE.,
(PID.TID 0000.0001) > eosType='POLY3',
(PID.TID 0000.0001) > implicitDiffusion=.TRUE.,
(PID.TID 0000.0001) > implicitViscosity=.TRUE.,
(PID.TID 0000.0001) > ivdc_kappa=100.,
(PID.TID 0000.0001) > tempAdvScheme       = 2
(PID.TID 0000.0001) > saltAdvScheme       = 2
(PID.TID 0000.0001) > tempStepping        = .TRUE.
(PID.TID 0000.0001) > saltStepping        = .TRUE.
(PID.TID 0000.0001) > multiDimAdvection   = .FALSE.
(PID.TID 0000.0001) > allowFreezing=.TRUE.,
(PID.TID 0000.0001) > useCDscheme=.TRUE.,
(PID.TID 0000.0001) >#usePickupBeforeC54=.TRUE.,
(PID.TID 0000.0001) > writeBinaryPrec= 64,
(PID.TID 0000.0001) > /
(PID.TID 0000.0001) >
(PID.TID 0000.0001) ># Elliptic solver parameters
(PID.TID 0000.0001) > &PARM02
(PID.TID 0000.0001) > cg2dMaxIters=1000,
(PID.TID 0000.0001) > cg2dTargetResidual=1.E-13,
(PID.TID 0000.0001) > /
(PID.TID 0000.0001) >
(PID.TID 0000.0001) ># Time stepping parameters
(PID.TID 0000.0001) > &PARM03
(PID.TID 0000.0001) > nIter0=5644800,
(PID.TID 0000.0001) > nTimeSteps = 4,
(PID.TID 0000.0001) >#nTimeSteps = 7200,
(PID.TID 0000.0001) > deltaTmom = 900.0,
(PID.TID 0000.0001) > tauCD =     321428.,
(PID.TID 0000.0001) > deltaTtracer= 43200.0,
(PID.TID 0000.0001) > deltaTClock = 43200.0,
(PID.TID 0000.0001) > abEps = 0.1,
(PID.TID 0000.0001) > pickupStrictlyMatch=.FALSE.,
(PID.TID 0000.0001) > pChkptFreq=311040000.,
(PID.TID 0000.0001) > chkptFreq= 311040000.,
(PID.TID 0000.0001) > dumpFreq=  43200.,
(PID.TID 0000.0001) > dumpinitandlast=.TRUE.,
(PID.TID 0000.0001) > taveFreq=  2592000.,
(PID.TID 0000.0001) >#taveFreq=  31104000.,
(PID.TID 0000.0001) >#monitorFreq= 31104000.,
(PID.TID 0000.0001) > monitorFreq= 43200.0,
(PID.TID 0000.0001) >#monitorFreq= 2592000.,
(PID.TID 0000.0001) > tauThetaClimRelax = 5184000.0,
(PID.TID 0000.0001) > tauSaltClimRelax =  7776000.0,
(PID.TID 0000.0001) > periodicExternalForcing=.TRUE.,
(PID.TID 0000.0001) > externForcingPeriod=2592000.,
(PID.TID 0000.0001) > externForcingCycle=31104000.,
(PID.TID 0000.0001) > /
(PID.TID 0000.0001) >
(PID.TID 0000.0001) ># Gridding parameters
(PID.TID 0000.0001) > &PARM04
(PID.TID 0000.0001) > usingCartesianGrid=.FALSE.,
(PID.TID 0000.0001) > usingSphericalPolarGrid=.TRUE.,
(PID.TID 0000.0001) > delZ= 50., 70., 100., 140., 190.,
(PID.TID 0000.0001) >       240., 290., 340., 390., 440.,
(PID.TID 0000.0001) >       490., 540., 590., 640., 690.,
(PID.TID 0000.0001) > ygOrigin=-90.,
(PID.TID 0000.0001) > delX=128*2.8125,
(PID.TID 0000.0001) > delY=64*2.8125,
(PID.TID 0000.0001) > /
(PID.TID 0000.0001) >
(PID.TID 0000.0001) ># Input datasets
(PID.TID 0000.0001) > &PARM05
(PID.TID 0000.0001) > bathyFile=      '../../monod_global_128x64x15/input/input_ocmip/depth_g77.bin',
(PID.TID 0000.0001) > hydrogThetaFile='../../monod_global_128x64x15/input/input_ocmip/lev_clim_temp.bin',
(PID.TID 0000.0001) > hydrogSaltFile= '../../monod_global_128x64x15/input/input_ocmip/lev_clim_salt.bin',
(PID.TID 0000.0001) > zonalWindFile=  '../../monod_global_128x64x15/input/input_ocmip/tren_taux.bin',
(PID.TID 0000.0001) > meridWindFile=  '../../monod_global_128x64x15/input/input_ocmip/tren_tauy.bin',
(PID.TID 0000.0001) > thetaClimFile=  '../../monod_global_128x64x15/input/input_ocmip/lev_monthly_temp.bin',
(PID.TID 0000.0001) > saltClimFile=   '../../monod_global_128x64x15/input/input_ocmip/lev_monthly_salt.bin',
(PID.TID 0000.0001) > surfQFile=      '../../monod_global_128x64x15/input/input_ocmip/shi_qnet.bin',
(PID.TID 0000.0001) > EmPmRFile=      '../../monod_global_128x64x15/input/input_ocmip/shi_empmr_year.bin',
(PID.TID 0000.0001) > the_run_name=   'Darwin12',
(PID.TID 0000.0001) > /
(PID.TID 0000.0001) 
(PID.TID 0000.0001)  INI_PARMS ; starts to read PARM01
(PID.TID 0000.0001)  INI_PARMS ; read PARM01 : OK
(PID.TID 0000.0001)  INI_PARMS ; starts to read PARM02
(PID.TID 0000.0001)  INI_PARMS ; read PARM02 : OK
(PID.TID 0000.0001)  INI_PARMS ; starts to read PARM03
(PID.TID 0000.0001)  INI_PARMS ; read PARM03 : OK
(PID.TID 0000.0001)  INI_PARMS ; starts to read PARM04
(PID.TID 0000.0001)  INI_PARMS ; read PARM04 : OK
(PID.TID 0000.0001)  INI_PARMS ; starts to read PARM05
(PID.TID 0000.0001)  INI_PARMS ; read PARM05 : OK
(PID.TID 0000.0001)  INI_PARMS: finished reading file "data"
(PID.TID 0000.0001)  PACKAGES_BOOT: opening data.pkg
(PID.TID 0000.0001)  OPEN_COPY_DATA_FILE: opening file data.pkg
(PID.TID 0000.0001) // =======================================================
(PID.TID 0000.0001) // Parameter file "data.pkg"
(PID.TID 0000.0001) // =======================================================
(PID.TID 0000.0001) ># Packages
(PID.TID 0000.0001) > &PACKAGES
(PID.TID 0000.0001) > useGMRedi=.TRUE.,
(PID.TID 0000.0001) > useGCHEM=.TRUE.,
(PID.TID 0000.0001) > usePTRACERS=.TRUE.,
(PID.TID 0000.0001) > useEXF=.TRUE.,
(PID.TID 0000.0001) > useMNC=.TRUE.,
(PID.TID 0000.0001) > useDIAGNOSTICS=.TRUE.,
(PID.TID 0000.0001) > /
(PID.TID 0000.0001) 
(PID.TID 0000.0001)  PACKAGES_BOOT: finished reading data.pkg
(PID.TID 0000.0001)  MNC_READPARMS: opening file 'data.mnc'
(PID.TID 0000.0001)  OPEN_COPY_DATA_FILE: opening file data.mnc
(PID.TID 0000.0001) // =======================================================
(PID.TID 0000.0001) // Parameter file "data.mnc"
(PID.TID 0000.0001) // =======================================================
(PID.TID 0000.0001) ># Example "data.mnc" file
(PID.TID 0000.0001) ># Lines beginning "#" are comments
(PID.TID 0000.0001) > &MNC_01
(PID.TID 0000.0001) ># mnc_echo_gvtypes=.FALSE.,
(PID.TID 0000.0001) ># mnc_use_indir=.FALSE.,
(PID.TID 0000.0001) ># mnc_use_outdir=.TRUE.,
(PID.TID 0000.0001) > mnc_outdir_str='ecco_darwin_',
(PID.TID 0000.0001) > mnc_outdir_date=.TRUE.,
(PID.TID 0000.0001) > monitor_mnc=.FALSE.,
(PID.TID 0000.0001) > snapshot_mnc=.TRUE.,
(PID.TID 0000.0001) > timeave_mnc=.TRUE.,
(PID.TID 0000.0001) > pickup_read_mnc=.FALSE.,
(PID.TID 0000.0001) > pickup_write_mnc=.FALSE.,
(PID.TID 0000.0001) ># mnc_filefreq = 31104000.,
(PID.TID 0000.0001) ># mnc_filefreq = -1.,
(PID.TID 0000.0001) > mnc_filefreq = 2592000
(PID.TID 0000.0001) > /
(PID.TID 0000.0001) ># Note: Some systems use & as the
(PID.TID 0000.0001) ># namelist terminator. Other systems
(PID.TID 0000.0001) ># use a / character.
(PID.TID 0000.0001) 
(PID.TID 0000.0001)  MNC_READPARMS: finished reading data.mnc
(PID.TID 0000.0001) CAL_READPARMS: opening data.cal
(PID.TID 0000.0001)  OPEN_COPY_DATA_FILE: opening file data.cal
(PID.TID 0000.0001) // =======================================================
(PID.TID 0000.0001) // Parameter file "data.cal"
(PID.TID 0000.0001) // =======================================================
(PID.TID 0000.0001) >#
(PID.TID 0000.0001) ># *******************
(PID.TID 0000.0001) ># Calendar Parameters
(PID.TID 0000.0001) ># *******************
(PID.TID 0000.0001) > &CAL_NML
(PID.TID 0000.0001) > TheCalendar='model',
(PID.TID 0000.0001) > startDate_1=19920101,
(PID.TID 0000.0001) > startDate_2=000000,
(PID.TID 0000.0001) > calendarDumps = .TRUE.
(PID.TID 0000.0001) > /
(PID.TID 0000.0001) 
(PID.TID 0000.0001) CAL_READPARMS: finished reading data.cal
(PID.TID 0000.0001) EXF_READPARMS: opening data.exf
(PID.TID 0000.0001)  OPEN_COPY_DATA_FILE: opening file data.exf
(PID.TID 0000.0001) // =======================================================
(PID.TID 0000.0001) // Parameter file "data.exf"
(PID.TID 0000.0001) // =======================================================
(PID.TID 0000.0001) ># *********************
(PID.TID 0000.0001) ># External Forcing Data
(PID.TID 0000.0001) ># *********************
(PID.TID 0000.0001) >#
(PID.TID 0000.0001) > &EXF_NML_01
(PID.TID 0000.0001) > exf_albedo        = 0.15,
(PID.TID 0000.0001) > exf_iprec         = 32,
(PID.TID 0000.0001) > exf_yftype        = 'RL',
(PID.TID 0000.0001) > useExfYearlyFields= .TRUE.,
(PID.TID 0000.0001) > twoDigitYear      = .TRUE.,
(PID.TID 0000.0001) > useExfCheckRange  = .FALSE.,
(PID.TID 0000.0001) > /
(PID.TID 0000.0001) >#
(PID.TID 0000.0001) > &EXF_NML_02
(PID.TID 0000.0001) > /
(PID.TID 0000.0001) >#
(PID.TID 0000.0001) > &EXF_NML_03
(PID.TID 0000.0001) > /
(PID.TID 0000.0001) >#
(PID.TID 0000.0001) > &EXF_NML_04
(PID.TID 0000.0001) > /
(PID.TID 0000.0001) >#
(PID.TID 0000.0001) > &EXF_NML_OBCS
(PID.TID 0000.0001) > /
(PID.TID 0000.0001) 
(PID.TID 0000.0001) EXF_READPARMS: reading EXF_NML_01
(PID.TID 0000.0001) EXF_READPARMS: reading EXF_NML_02
(PID.TID 0000.0001) EXF_READPARMS: reading EXF_NML_03
(PID.TID 0000.0001) EXF_READPARMS: finished reading data.exf
(PID.TID 0000.0001)  GM_READPARMS: opening data.gmredi
(PID.TID 0000.0001)  OPEN_COPY_DATA_FILE: opening file data.gmredi
(PID.TID 0000.0001) // =======================================================
(PID.TID 0000.0001) // Parameter file "data.gmredi"
(PID.TID 0000.0001) // =======================================================
(PID.TID 0000.0001) ># GM+Redi package parameters:
(PID.TID 0000.0001) >#     GM_Small_Number  :: epsilon used in computing the slope
(PID.TID 0000.0001) >#     GM_slopeSqCutoff :: slope^2 cut-off value
(PID.TID 0000.0001) >
(PID.TID 0000.0001) >#-from MOM :
(PID.TID 0000.0001) ># GM_background_K:      G & Mc.W  diffusion coefficient
(PID.TID 0000.0001) ># GM_maxSlope    :      max slope of isopycnals
(PID.TID 0000.0001) ># GM_Scrit       :      transition for scaling diffusion coefficient
(PID.TID 0000.0001) ># GM_Sd          :      half width scaling for diffusion coefficient
(PID.TID 0000.0001) ># GM_taper_scheme:      slope clipping or one of the tapering schemes
(PID.TID 0000.0001) ># GM_Kmin_horiz  :      horizontal diffusion minimum value
(PID.TID 0000.0001) >
(PID.TID 0000.0001) >#-Option parameters (needs to "define" options in GMREDI_OPTIONS.h")
(PID.TID 0000.0001) ># GM_isopycK     :      isopycnal diffusion coefficient
(PID.TID 0000.0001) >(default=GM_background_K)
(PID.TID 0000.0001) ># GM_AdvForm     :      turn on GM Advective form       (default=Skew flux
(PID.TID 0000.0001) >form)
(PID.TID 0000.0001) >
(PID.TID 0000.0001) > &GM_PARM01
(PID.TID 0000.0001) >  GM_Small_Number    = 1.D-20,
(PID.TID 0000.0001) >  GM_slopeSqCutoff   = 1.D+08,
(PID.TID 0000.0001) >  GM_AdvForm         = .FALSE.,
(PID.TID 0000.0001) >  GM_isopycK         = 1.D+3,
(PID.TID 0000.0001) >  GM_background_K    = 1.D+3,
(PID.TID 0000.0001) >  GM_maxSlope        = 1.D-2,
(PID.TID 0000.0001) >  GM_taper_scheme    = 'dm95',
(PID.TID 0000.0001) >  GM_Kmin_horiz      = 50.,
(PID.TID 0000.0001) >  GM_Scrit           = 4.D-3,
(PID.TID 0000.0001) >  GM_Sd              = 1.D-3,
(PID.TID 0000.0001) >#
(PID.TID 0000.0001) >###  GM_Visbeck_alpha   = 1.5D-2,
(PID.TID 0000.0001) >###  GM_Visbeck_alpha   = 0.D0,
(PID.TID 0000.0001) >###  GM_Visbeck_length  = 2.D+5,
(PID.TID 0000.0001) >###  GM_Visbeck_depth   = 1.D+3,
(PID.TID 0000.0001) >###  GM_Visbeck_maxval_K= 2.5D+3,
(PID.TID 0000.0001) > /
(PID.TID 0000.0001) >
(PID.TID 0000.0001) 
(PID.TID 0000.0001)  GM_READPARMS: finished reading data.gmredi
(PID.TID 0000.0001)  PTRACERS_READPARMS: opening data.ptracers
(PID.TID 0000.0001)  OPEN_COPY_DATA_FILE: opening file data.ptracers
(PID.TID 0000.0001) // =======================================================
(PID.TID 0000.0001) // Parameter file "data.ptracers"
(PID.TID 0000.0001) // =======================================================
(PID.TID 0000.0001) > &PTRACERS_PARM01
(PID.TID 0000.0001) > PTRACERS_numInUse=207,
(PID.TID 0000.0001) > PTRACERS_Iter0= 5644800,
(PID.TID 0000.0001) >#
(PID.TID 0000.0001) > PTRACERS_advScheme= 207*33,
(PID.TID 0000.0001) > PTRACERS_diffKh=    207*0.E3,
(PID.TID 0000.0001) > PTRACERS_diffKr=    207*1.E-5,
(PID.TID 0000.0001) > PTRACERS_useGMRedi= 207*.TRUE. ,
(PID.TID 0000.0001) ># PTRACERS_useKPP=    207*.TRUE. ,
(PID.TID 0000.0001) >#
(PID.TID 0000.0001) > PTRACERS_names(1)= 'DIC',
(PID.TID 0000.0001) > PTRACERS_names(2)= 'NH4',
(PID.TID 0000.0001) > PTRACERS_names(3)= 'NO2',
(PID.TID 0000.0001) > PTRACERS_names(4)= 'NO3',
(PID.TID 0000.0001) > PTRACERS_names(5)= 'PO4',
(PID.TID 0000.0001) > PTRACERS_names(6)= 'SiO2',
(PID.TID 0000.0001) > PTRACERS_names(7)= 'FeT',
(PID.TID 0000.0001) > PTRACERS_names(8)= 'DOC',
(PID.TID 0000.0001) > PTRACERS_names(9)= 'DON',
(PID.TID 0000.0001) > PTRACERS_names(10)= 'DOP',
(PID.TID 0000.0001) > PTRACERS_names(11)= 'DOFe',
(PID.TID 0000.0001) > PTRACERS_names(12)= 'POC',
(PID.TID 0000.0001) > PTRACERS_names(13)= 'PON',
(PID.TID 0000.0001) > PTRACERS_names(14)= 'POP',
(PID.TID 0000.0001) > PTRACERS_names(15)= 'POSi',
(PID.TID 0000.0001) > PTRACERS_names(16)= 'POFe',
(PID.TID 0000.0001) > PTRACERS_names(17)= 'PIC',
(PID.TID 0000.0001) > PTRACERS_names(18)= 'c01',
(PID.TID 0000.0001) > PTRACERS_names(19)= 'c02',
(PID.TID 0000.0001) > PTRACERS_names(20)= 'c03',
(PID.TID 0000.0001) > PTRACERS_names(21)= 'c04',
(PID.TID 0000.0001) > PTRACERS_names(22)= 'c05',
(PID.TID 0000.0001) > PTRACERS_names(23)= 'c06',
(PID.TID 0000.0001) > PTRACERS_names(24)= 'c07',
(PID.TID 0000.0001) > PTRACERS_names(25)= 'c08',
(PID.TID 0000.0001) > PTRACERS_names(26)= 'c09',
(PID.TID 0000.0001) > PTRACERS_names(27)= 'c10',
(PID.TID 0000.0001) > PTRACERS_names(28)= 'c11',
(PID.TID 0000.0001) > PTRACERS_names(29)= 'c12',
(PID.TID 0000.0001) > PTRACERS_names(30)= 'c13',
(PID.TID 0000.0001) > PTRACERS_names(31)= 'c14',
(PID.TID 0000.0001) > PTRACERS_names(32)= 'c15',
(PID.TID 0000.0001) > PTRACERS_names(33)= 'c16',
(PID.TID 0000.0001) > PTRACERS_names(34)= 'c17',
(PID.TID 0000.0001) > PTRACERS_names(35)= 'c18',
(PID.TID 0000.0001) > PTRACERS_names(36)= 'c19',
(PID.TID 0000.0001) > PTRACERS_names(37)= 'c20',
(PID.TID 0000.0001) > PTRACERS_names(38)= 'c21',
(PID.TID 0000.0001) > PTRACERS_names(39)= 'c22',
(PID.TID 0000.0001) > PTRACERS_names(40)= 'c23',
(PID.TID 0000.0001) > PTRACERS_names(41)= 'c24',
(PID.TID 0000.0001) > PTRACERS_names(42)= 'c25',
(PID.TID 0000.0001) > PTRACERS_names(43)= 'c26',
(PID.TID 0000.0001) > PTRACERS_names(44)= 'c27',
(PID.TID 0000.0001) > PTRACERS_names(45)= 'c28',
(PID.TID 0000.0001) > PTRACERS_names(46)= 'c29',
(PID.TID 0000.0001) > PTRACERS_names(47)= 'c30',
(PID.TID 0000.0001) > PTRACERS_names(48)= 'c31',
(PID.TID 0000.0001) > PTRACERS_names(49)= 'c32',
(PID.TID 0000.0001) > PTRACERS_names(50)= 'c33',
(PID.TID 0000.0001) > PTRACERS_names(51)= 'c34',
(PID.TID 0000.0001) > PTRACERS_names(52)= 'c35',
(PID.TID 0000.0001) > PTRACERS_names(53)= 'c36',
(PID.TID 0000.0001) > PTRACERS_names(54)= 'c37',
(PID.TID 0000.0001) > PTRACERS_names(55)= 'c38',
(PID.TID 0000.0001) > PTRACERS_names(56)= 'c39',
(PID.TID 0000.0001) > PTRACERS_names(57)= 'c40',
(PID.TID 0000.0001) > PTRACERS_names(58)= 'c41',
(PID.TID 0000.0001) > PTRACERS_names(59)= 'c42',
(PID.TID 0000.0001) > PTRACERS_names(60)= 'c43',
(PID.TID 0000.0001) > PTRACERS_names(61)= 'c44',
(PID.TID 0000.0001) > PTRACERS_names(62)= 'c45',
(PID.TID 0000.0001) > PTRACERS_names(63)= 'c46',
(PID.TID 0000.0001) > PTRACERS_names(64)= 'c47',
(PID.TID 0000.0001) > PTRACERS_names(65)= 'c48',
(PID.TID 0000.0001) > PTRACERS_names(66)= 'c49',
(PID.TID 0000.0001) > PTRACERS_names(67)= 'c50',
(PID.TID 0000.0001) > PTRACERS_names(68)= 'c51',
(PID.TID 0000.0001) > PTRACERS_names(69)= 'c52',
(PID.TID 0000.0001) > PTRACERS_names(70)= 'c53',
(PID.TID 0000.0001) > PTRACERS_names(71)= 'c54',
(PID.TID 0000.0001) > PTRACERS_names(72)= 'c55',
(PID.TID 0000.0001) > PTRACERS_names(73)= 'n01',
(PID.TID 0000.0001) > PTRACERS_names(74)= 'n02',
(PID.TID 0000.0001) > PTRACERS_names(75)= 'n03',
(PID.TID 0000.0001) > PTRACERS_names(76)= 'n04',
(PID.TID 0000.0001) > PTRACERS_names(77)= 'n05',
(PID.TID 0000.0001) > PTRACERS_names(78)= 'n06',
(PID.TID 0000.0001) > PTRACERS_names(79)= 'n07',
(PID.TID 0000.0001) > PTRACERS_names(80)= 'n08',
(PID.TID 0000.0001) > PTRACERS_names(81)= 'n09',
(PID.TID 0000.0001) > PTRACERS_names(82)= 'n10',
(PID.TID 0000.0001) > PTRACERS_names(83)= 'n11',
(PID.TID 0000.0001) > PTRACERS_names(84)= 'n12',
(PID.TID 0000.0001) > PTRACERS_names(85)= 'n13',
(PID.TID 0000.0001) > PTRACERS_names(86)= 'n14',
(PID.TID 0000.0001) > PTRACERS_names(87)= 'n15',
(PID.TID 0000.0001) > PTRACERS_names(88)= 'n16',
(PID.TID 0000.0001) > PTRACERS_names(89)= 'n17',
(PID.TID 0000.0001) > PTRACERS_names(90)= 'n18',
(PID.TID 0000.0001) > PTRACERS_names(91)= 'n19',
(PID.TID 0000.0001) > PTRACERS_names(92)= 'n20',
(PID.TID 0000.0001) > PTRACERS_names(93)= 'n21',
(PID.TID 0000.0001) > PTRACERS_names(94)= 'n22',
(PID.TID 0000.0001) > PTRACERS_names(95)= 'n23',
(PID.TID 0000.0001) > PTRACERS_names(96)= 'n24',
(PID.TID 0000.0001) > PTRACERS_names(97)= 'n25',
(PID.TID 0000.0001) > PTRACERS_names(98)= 'n26',
(PID.TID 0000.0001) > PTRACERS_names(99)= 'n27',
(PID.TID 0000.0001) > PTRACERS_names(100)= 'n28',
(PID.TID 0000.0001) > PTRACERS_names(101)= 'n29',
(PID.TID 0000.0001) > PTRACERS_names(102)= 'n30',
(PID.TID 0000.0001) > PTRACERS_names(103)= 'n31',
(PID.TID 0000.0001) > PTRACERS_names(104)= 'n32',
(PID.TID 0000.0001) > PTRACERS_names(105)= 'n33',
(PID.TID 0000.0001) > PTRACERS_names(106)= 'n34',
(PID.TID 0000.0001) > PTRACERS_names(107)= 'n35',
(PID.TID 0000.0001) > PTRACERS_names(108)= 'n36',
(PID.TID 0000.0001) > PTRACERS_names(109)= 'n37',
(PID.TID 0000.0001) > PTRACERS_names(110)= 'n38',
(PID.TID 0000.0001) > PTRACERS_names(111)= 'n39',
(PID.TID 0000.0001) > PTRACERS_names(112)= 'n40',
(PID.TID 0000.0001) > PTRACERS_names(113)= 'n41',
(PID.TID 0000.0001) > PTRACERS_names(114)= 'n42',
(PID.TID 0000.0001) > PTRACERS_names(115)= 'n43',
(PID.TID 0000.0001) > PTRACERS_names(116)= 'n44',
(PID.TID 0000.0001) > PTRACERS_names(117)= 'n45',
(PID.TID 0000.0001) > PTRACERS_names(118)= 'n46',
(PID.TID 0000.0001) > PTRACERS_names(119)= 'n47',
(PID.TID 0000.0001) > PTRACERS_names(120)= 'n48',
(PID.TID 0000.0001) > PTRACERS_names(121)= 'n49',
(PID.TID 0000.0001) > PTRACERS_names(122)= 'n50',
(PID.TID 0000.0001) > PTRACERS_names(123)= 'n51',
(PID.TID 0000.0001) > PTRACERS_names(124)= 'n52',
(PID.TID 0000.0001) > PTRACERS_names(125)= 'n53',
(PID.TID 0000.0001) > PTRACERS_names(126)= 'n54',
(PID.TID 0000.0001) > PTRACERS_names(127)= 'n55',
(PID.TID 0000.0001) > PTRACERS_names(128)= 'fe01',
(PID.TID 0000.0001) > PTRACERS_names(129)= 'fe02',
(PID.TID 0000.0001) > PTRACERS_names(130)= 'fe03',
(PID.TID 0000.0001) > PTRACERS_names(131)= 'fe04',
(PID.TID 0000.0001) > PTRACERS_names(132)= 'fe05',
(PID.TID 0000.0001) > PTRACERS_names(133)= 'fe06',
(PID.TID 0000.0001) > PTRACERS_names(134)= 'fe07',
(PID.TID 0000.0001) > PTRACERS_names(135)= 'fe08',
(PID.TID 0000.0001) > PTRACERS_names(136)= 'fe09',
(PID.TID 0000.0001) > PTRACERS_names(137)= 'fe10',
(PID.TID 0000.0001) > PTRACERS_names(138)= 'fe11',
(PID.TID 0000.0001) > PTRACERS_names(139)= 'fe12',
(PID.TID 0000.0001) > PTRACERS_names(140)= 'fe13',
(PID.TID 0000.0001) > PTRACERS_names(141)= 'fe14',
(PID.TID 0000.0001) > PTRACERS_names(142)= 'fe15',
(PID.TID 0000.0001) > PTRACERS_names(143)= 'fe16',
(PID.TID 0000.0001) > PTRACERS_names(144)= 'fe17',
(PID.TID 0000.0001) > PTRACERS_names(145)= 'fe18',
(PID.TID 0000.0001) > PTRACERS_names(146)= 'fe19',
(PID.TID 0000.0001) > PTRACERS_names(147)= 'fe20',
(PID.TID 0000.0001) > PTRACERS_names(148)= 'fe21',
(PID.TID 0000.0001) > PTRACERS_names(149)= 'fe22',
(PID.TID 0000.0001) > PTRACERS_names(150)= 'fe23',
(PID.TID 0000.0001) > PTRACERS_names(151)= 'fe24',
(PID.TID 0000.0001) > PTRACERS_names(152)= 'fe25',
(PID.TID 0000.0001) > PTRACERS_names(153)= 'fe26',
(PID.TID 0000.0001) > PTRACERS_names(154)= 'fe27',
(PID.TID 0000.0001) > PTRACERS_names(155)= 'fe28',
(PID.TID 0000.0001) > PTRACERS_names(156)= 'fe29',
(PID.TID 0000.0001) > PTRACERS_names(157)= 'fe30',
(PID.TID 0000.0001) > PTRACERS_names(158)= 'fe31',
(PID.TID 0000.0001) > PTRACERS_names(159)= 'fe32',
(PID.TID 0000.0001) > PTRACERS_names(160)= 'fe33',
(PID.TID 0000.0001) > PTRACERS_names(161)= 'fe34',
(PID.TID 0000.0001) > PTRACERS_names(162)= 'fe35',
(PID.TID 0000.0001) > PTRACERS_names(163)= 'fe36',
(PID.TID 0000.0001) > PTRACERS_names(164)= 'fe37',
(PID.TID 0000.0001) > PTRACERS_names(165)= 'fe38',
(PID.TID 0000.0001) > PTRACERS_names(166)= 'fe39',
(PID.TID 0000.0001) > PTRACERS_names(167)= 'fe40',
(PID.TID 0000.0001) > PTRACERS_names(168)= 'fe41',
(PID.TID 0000.0001) > PTRACERS_names(169)= 'fe42',
(PID.TID 0000.0001) > PTRACERS_names(170)= 'fe43',
(PID.TID 0000.0001) > PTRACERS_names(171)= 'fe44',
(PID.TID 0000.0001) > PTRACERS_names(172)= 'fe45',
(PID.TID 0000.0001) > PTRACERS_names(173)= 'fe46',
(PID.TID 0000.0001) > PTRACERS_names(174)= 'fe47',
(PID.TID 0000.0001) > PTRACERS_names(175)= 'fe48',
(PID.TID 0000.0001) > PTRACERS_names(176)= 'fe49',
(PID.TID 0000.0001) > PTRACERS_names(177)= 'fe50',
(PID.TID 0000.0001) > PTRACERS_names(178)= 'fe51',
(PID.TID 0000.0001) > PTRACERS_names(179)= 'fe52',
(PID.TID 0000.0001) > PTRACERS_names(180)= 'fe53',
(PID.TID 0000.0001) > PTRACERS_names(181)= 'fe54',
(PID.TID 0000.0001) > PTRACERS_names(182)= 'fe55',
(PID.TID 0000.0001) > PTRACERS_names(183)= 'Chl01',
(PID.TID 0000.0001) > PTRACERS_names(184)= 'Chl02',
(PID.TID 0000.0001) > PTRACERS_names(185)= 'Chl03',
(PID.TID 0000.0001) > PTRACERS_names(186)= 'Chl04',
(PID.TID 0000.0001) > PTRACERS_names(187)= 'Chl05',
(PID.TID 0000.0001) > PTRACERS_names(188)= 'Chl06',
(PID.TID 0000.0001) > PTRACERS_names(189)= 'Chl07',
(PID.TID 0000.0001) > PTRACERS_names(190)= 'Chl08',
(PID.TID 0000.0001) > PTRACERS_names(191)= 'Chl09',
(PID.TID 0000.0001) > PTRACERS_names(192)= 'Chl10',
(PID.TID 0000.0001) > PTRACERS_names(193)= 'Chl11',
(PID.TID 0000.0001) > PTRACERS_names(194)= 'Chl12',
(PID.TID 0000.0001) > PTRACERS_names(195)= 'Chl13',
(PID.TID 0000.0001) > PTRACERS_names(196)= 'Chl14',
(PID.TID 0000.0001) > PTRACERS_names(197)= 'Chl15',
(PID.TID 0000.0001) > PTRACERS_names(198)= 'Chl16',
(PID.TID 0000.0001) > PTRACERS_names(199)= 'Chl17',
(PID.TID 0000.0001) > PTRACERS_names(200)= 'Chl18',
(PID.TID 0000.0001) > PTRACERS_names(201)= 'Chl19',
(PID.TID 0000.0001) > PTRACERS_names(202)= 'Chl20',
(PID.TID 0000.0001) > PTRACERS_names(203)= 'Chl21',
(PID.TID 0000.0001) > PTRACERS_names(204)= 'Chl22',
(PID.TID 0000.0001) > PTRACERS_names(205)= 'Chl23',
(PID.TID 0000.0001) > PTRACERS_names(206)= 'Chl24',
(PID.TID 0000.0001) > PTRACERS_names(207)= 'Chl25',
(PID.TID 0000.0001) >#
(PID.TID 0000.0001) > PTRACERS_units(1)='mmol C/m^3'
(PID.TID 0000.0001) > PTRACERS_units(2)='mmol N/m^3'
(PID.TID 0000.0001) > PTRACERS_units(3)='mmol N/m^3'
(PID.TID 0000.0001) > PTRACERS_units(4)='mmol N/m^3'
(PID.TID 0000.0001) > PTRACERS_units(5)='mmol P/m^3'
(PID.TID 0000.0001) > PTRACERS_units(6)='mmol Si/m^3'
(PID.TID 0000.0001) > PTRACERS_units(7)='mmol Fe/m^3'
(PID.TID 0000.0001) > PTRACERS_units(8)='mmol C/m^3'
(PID.TID 0000.0001) > PTRACERS_units(9)='mmol N/m^3'
(PID.TID 0000.0001) > PTRACERS_units(10)='mmol P/m^3'
(PID.TID 0000.0001) > PTRACERS_units(11)='mmol Fe/m^3'
(PID.TID 0000.0001) > PTRACERS_units(12)='mmol C/m^3'
(PID.TID 0000.0001) > PTRACERS_units(13)='mmol N/m^3'
(PID.TID 0000.0001) > PTRACERS_units(14)='mmol P/m^3'
(PID.TID 0000.0001) > PTRACERS_units(15)='mmol Si/m^3'
(PID.TID 0000.0001) > PTRACERS_units(16)='mmol Fe/m^3'
(PID.TID 0000.0001) > PTRACERS_units(17)='mmol C/m^3'
(PID.TID 0000.0001) > PTRACERS_units(18:72)=55*'mmol C/m^3'
(PID.TID 0000.0001) > PTRACERS_units(73:127)=55*'mmol N/m^3'
(PID.TID 0000.0001) > PTRACERS_units(128:182)=55*'mmol Fe/m^3'
(PID.TID 0000.0001) > PTRACERS_units(183:207)=25*'mg Chl a/m^3'
(PID.TID 0000.0001) >#
(PID.TID 0000.0001) > PTRACERS_initialFile(1)='../input/input/dic_mmolm3_jan2004.bin',
(PID.TID 0000.0001) > PTRACERS_initialFile(2)='../input/input/NH4_run1_13_10y.bin',
(PID.TID 0000.0001) > PTRACERS_initialFile(3)='../input/input/NO2_run1_13_10y.bin',
(PID.TID 0000.0001) > PTRACERS_initialFile(4)='../input/input/lev01_nitrate_ann-3d.bin',
(PID.TID 0000.0001) >#PTRACERS_initialFile(5)='../input/input/loc1_PO4_run83_janprof.bin',
(PID.TID 0000.0001) >#PTRACERS_initialFile(6)='../input/input/loc1_SiO2_run83_janprof.bin',
(PID.TID 0000.0001) > PTRACERS_initialFile(7)='../input/input/payal_fet_ann-3d.bin',
(PID.TID 0000.0001) > PTRACERS_initialFile(8)='../input/input/DOC_run1_13_10y.bin',
(PID.TID 0000.0001) > PTRACERS_initialFile(9)='../input/input/DON_run1_13_10y.bin',
(PID.TID 0000.0001) >#PTRACERS_initialFile(10)='../input/input/loc1_DOP_run83_janprof.bin',
(PID.TID 0000.0001) > PTRACERS_initialFile(11)='../input/input/DOFe_run1_13_10y.bin',
(PID.TID 0000.0001) > PTRACERS_initialFile(12)='../input/input/POC_run1_13_10y.bin',
(PID.TID 0000.0001) > PTRACERS_initialFile(13)='../input/input/PON_run1_13_10y.bin',
(PID.TID 0000.0001) >#PTRACERS_initialFile(14)='../input/input/loc1_POP_run83_janprof.bin',
(PID.TID 0000.0001) >#PTRACERS_initialFile(15)='../input/input/loc1_POSi_run83_janprof.bin',
(PID.TID 0000.0001) > PTRACERS_initialFile(16)='../input/input/POFe_run1_13_10y.bin',
(PID.TID 0000.0001) >#PTRACERS_initialFile(17)='../input/input/loc1_PIC_run83_janprof.bin',
(PID.TID 0000.0001) > PTRACERS_initialFile(18:72)=55*'../input/input/C_bio_even.bin',
(PID.TID 0000.0001) > PTRACERS_initialFile(73:127)=55*'../input/input/N_bio_even.bin',
(PID.TID 0000.0001) > PTRACERS_initialFile(128:182)=55*'../input/input/Fe_bio_even.bin',
(PID.TID 0000.0001) > PTRACERS_initialFile(183:207)=25*'../input/input/Chl_bio_even.bin',
(PID.TID 0000.0001) ># PTRACERS_initialFile(19)='../input/input/loc1_C_biomass_janprof.bin',
(PID.TID 0000.0001) ># PTRACERS_initialFile(20)='../input/input/loc1_C_biomass_janprof.bin',
(PID.TID 0000.0001) ># PTRACERS_initialFile(21)='../input/input/loc1_C_biomass_janprof.bin',
(PID.TID 0000.0001) ># PTRACERS_initialFile(22)='../input/input/loc1_C_biomass_janprof.bin',
(PID.TID 0000.0001) ># PTRACERS_initialFile(23)='../input/input/loc1_C_biomass_janprof.bin',
(PID.TID 0000.0001) ># PTRACERS_initialFile(24)='../input/input/loc1_C_biomass_janprof.bin',
(PID.TID 0000.0001) ># PTRACERS_initialFile(25)='../input/input/loc1_C_biomass_janprof.bin',
(PID.TID 0000.0001) ># PTRACERS_initialFile(26)='../input/input/loc1_C_biomass_janprof.bin',
(PID.TID 0000.0001) ># PTRACERS_initialFile(27)='../input/input/loc1_C_biomass_janprof.bin',
(PID.TID 0000.0001) ># PTRACERS_initialFile(28)='../input/input/loc1_C_biomass_janprof.bin',
(PID.TID 0000.0001) ># PTRACERS_initialFile(29)='../input/input/loc1_C_biomass_janprof.bin',
(PID.TID 0000.0001) ># PTRACERS_initialFile(30)='../input/input/loc1_C_biomass_janprof.bin',
(PID.TID 0000.0001) ># PTRACERS_initialFile(31)='../input/input/loc1_C_biomass_janprof.bin',
(PID.TID 0000.0001) ># PTRACERS_initialFile(32)='../input/input/loc1_C_biomass_janprof.bin',
(PID.TID 0000.0001) ># PTRACERS_initialFile(33)='../input/input/loc1_C_biomass_janprof.bin',
(PID.TID 0000.0001) ># PTRACERS_initialFile(34)='../input/input/loc1_N_biomass_janprof.bin',
(PID.TID 0000.0001) ># PTRACERS_initialFile(35)='../input/input/loc1_N_biomass_janprof.bin',
(PID.TID 0000.0001) ># PTRACERS_initialFile(36)='../input/input/loc1_N_biomass_janprof.bin',
(PID.TID 0000.0001) ># PTRACERS_initialFile(37)='../input/input/loc1_N_biomass_janprof.bin',
(PID.TID 0000.0001) ># PTRACERS_initialFile(38)='../input/input/loc1_N_biomass_janprof.bin',
(PID.TID 0000.0001) ># PTRACERS_initialFile(39)='../input/input/loc1_N_biomass_janprof.bin',
(PID.TID 0000.0001) ># PTRACERS_initialFile(40)='../input/input/loc1_N_biomass_janprof.bin',
(PID.TID 0000.0001) ># PTRACERS_initialFile(41)='../input/input/loc1_N_biomass_janprof.bin',
(PID.TID 0000.0001) ># PTRACERS_initialFile(42)='../input/input/loc1_N_biomass_janprof.bin',
(PID.TID 0000.0001) ># PTRACERS_initialFile(43)='../input/input/loc1_N_biomass_janprof.bin',
(PID.TID 0000.0001) ># PTRACERS_initialFile(44)='../input/input/loc1_N_biomass_janprof.bin',
(PID.TID 0000.0001) ># PTRACERS_initialFile(45)='../input/input/loc1_N_biomass_janprof.bin',
(PID.TID 0000.0001) ># PTRACERS_initialFile(46)='../input/input/loc1_N_biomass_janprof.bin',
(PID.TID 0000.0001) ># PTRACERS_initialFile(47)='../input/input/loc1_N_biomass_janprof.bin',
(PID.TID 0000.0001) ># PTRACERS_initialFile(48)='../input/input/loc1_N_biomass_janprof.bin',
(PID.TID 0000.0001) ># PTRACERS_initialFile(49)='../input/input/loc1_N_biomass_janprof.bin',
(PID.TID 0000.0001) ># PTRACERS_initialFile(50)='../input/input/loc1_Fe_biomass_janprof.bin',
(PID.TID 0000.0001) ># PTRACERS_initialFile(51)='../input/input/loc1_Fe_biomass_janprof.bin',
(PID.TID 0000.0001) ># PTRACERS_initialFile(52)='../input/input/loc1_Fe_biomass_janprof.bin',
(PID.TID 0000.0001) ># PTRACERS_initialFile(53)='../input/input/loc1_Fe_biomass_janprof.bin',
(PID.TID 0000.0001) ># PTRACERS_initialFile(54)='../input/input/loc1_Fe_biomass_janprof.bin',
(PID.TID 0000.0001) ># PTRACERS_initialFile(55)='../input/input/loc1_Fe_biomass_janprof.bin',
(PID.TID 0000.0001) ># PTRACERS_initialFile(56)='../input/input/loc1_Fe_biomass_janprof.bin',
(PID.TID 0000.0001) ># PTRACERS_initialFile(57)='../input/input/loc1_Fe_biomass_janprof.bin',
(PID.TID 0000.0001) ># PTRACERS_initialFile(58)='../input/input/loc1_Fe_biomass_janprof.bin',
(PID.TID 0000.0001) ># PTRACERS_initialFile(59)='../input/input/loc1_Fe_biomass_janprof.bin',
(PID.TID 0000.0001) ># PTRACERS_initialFile(60)='../input/input/loc1_Fe_biomass_janprof.bin',
(PID.TID 0000.0001) ># PTRACERS_initialFile(61)='../input/input/loc1_Fe_biomass_janprof.bin',
(PID.TID 0000.0001) ># PTRACERS_initialFile(62)='../input/input/loc1_Fe_biomass_janprof.bin',
(PID.TID 0000.0001) ># PTRACERS_initialFile(63)='../input/input/loc1_Fe_biomass_janprof.bin',
(PID.TID 0000.0001) ># PTRACERS_initialFile(64)='../input/input/loc1_Fe_biomass_janprof.bin',
(PID.TID 0000.0001) ># PTRACERS_initialFile(65)='../input/input/loc1_Fe_biomass_janprof.bin',
(PID.TID 0000.0001) ># PTRACERS_initialFile(66)='../input/input/loc1_chlorophyll_janprof.bin',
(PID.TID 0000.0001) ># PTRACERS_initialFile(67)='../input/input/loc1_chlorophyll_janprof.bin',
(PID.TID 0000.0001) ># PTRACERS_initialFile(68)='../input/input/loc1_chlorophyll_janprof.bin',
(PID.TID 0000.0001) ># PTRACERS_initialFile(69)='../input/input/loc1_chlorophyll_janprof.bin',
(PID.TID 0000.0001) ># PTRACERS_initialFile(70)='../input/input/loc1_chlorophyll_janprof.bin',
(PID.TID 0000.0001) ># PTRACERS_initialFile(71)='../input/input/loc1_chlorophyll_janprof.bin',
(PID.TID 0000.0001) ># PTRACERS_initialFile(72)='../input/input/loc1_chlorophyll_janprof.bin',
(PID.TID 0000.0001) ># PTRACERS_initialFile(73)='../input/input/loc1_chlorophyll_janprof.bin',
(PID.TID 0000.0001) ># PTRACERS_initialFile(74)='../input/input/loc1_chlorophyll_janprof.bin',
(PID.TID 0000.0001) ># PTRACERS_initialFile(75)='../input/input/loc1_chlorophyll_janprof.bin',
(PID.TID 0000.0001) ># PTRACERS_initialFile(76)='../input/input/loc1_chlorophyll_janprof.bin',
(PID.TID 0000.0001) ># PTRACERS_initialFile(77)='../input/input/loc1_chlorophyll_janprof.bin',
(PID.TID 0000.0001) ># PTRACERS_initialFile(78)='../input/input/loc1_chlorophyll_janprof.bin',
(PID.TID 0000.0001) ># PTRACERS_initialFile(79)='../input/input/loc1_chlorophyll_janprof.bin',
(PID.TID 0000.0001) ># PTRACERS_initialFile(80)='../input/input/loc1_chlorophyll_janprof.bin',
(PID.TID 0000.0001) ># PTRACERS_ref(1:5,18:72)= 80*1.0,
(PID.TID 0000.0001) ># PTRACERS_ref(1:5,73:127)= 80*0.133333,
(PID.TID 0000.0001) ># PTRACERS_ref(1:5,128:182)= 80*0.00001,
(PID.TID 0000.0001) ># PTRACERS_ref(1:5,183:207)= 75*0.15,
(PID.TID 0000.0001) > /
(PID.TID 0000.0001) 
(PID.TID 0000.0001)  PTRACERS_READPARMS: finished reading data.ptracers
(PID.TID 0000.0001)  GCHEM_READPARMS: opening data.gchem
(PID.TID 0000.0001)  OPEN_COPY_DATA_FILE: opening file data.gchem
(PID.TID 0000.0001) // =======================================================
(PID.TID 0000.0001) // Parameter file "data.gchem"
(PID.TID 0000.0001) // =======================================================
(PID.TID 0000.0001) > &GCHEM_PARM01
(PID.TID 0000.0001) >  useDARWIN=.TRUE.,
(PID.TID 0000.0001) >  nsubtime=2,
(PID.TID 0000.0001) > /
(PID.TID 0000.0001) 
(PID.TID 0000.0001)  GCHEM_READPARMS: finished reading data.gchem
(PID.TID 0000.0001)  DARWIN_READPARMS: opening data.darwin
(PID.TID 0000.0001)  OPEN_COPY_DATA_FILE: opening file data.darwin
(PID.TID 0000.0001) // =======================================================
(PID.TID 0000.0001) // Parameter file "data.darwin"
(PID.TID 0000.0001) // =======================================================
(PID.TID 0000.0001) > &DARWIN_FORCING_PARAMS
(PID.TID 0000.0001) > /
(PID.TID 0000.0001) > &DARWIN_EXF_PARAMS
(PID.TID 0000.0001) > iceFile='../input/input/nasa_icefraction_mth-2d.bin',
(PID.TID 0000.0001) > ironFile='../input/input/mahowald2009_solubile_current_smooth_oce_mth-2d.bin',
(PID.TID 0000.0001) > PARFile='../input/input/par_ecco.bin_mth-2d.bin',
(PID.TID 0000.0001) ># NO3_RelaxFile='/home/stephd/Input/input_ecco/lev01_nitrate_mth-3d.bin',
(PID.TID 0000.0001) ># darwin_relaxScale=31104000.,
(PID.TID 0000.0001) > icePeriod= -12.,
(PID.TID 0000.0001) > ironPeriod= -12.,
(PID.TID 0000.0001) > PARPeriod= -12.,
(PID.TID 0000.0001) > darwin_inscal_iron= 1000.,
(PID.TID 0000.0001) > darwin_inscal_PAR= 11.574074074074,
(PID.TID 0000.0001) >#darwin_PO4_fluxFile= '../input/input/ann_nphos_flux.bin',
(PID.TID 0000.0001) >#darwin_NO3_fluxFile= '../input/input/ann_nnitr_flux.bin',
(PID.TID 0000.0001) >#darwin_Si_fluxFile= '../input/input/ann_nsil_flux.bin',
(PID.TID 0000.0001) > /
(PID.TID 0000.0001) > &DARWIN_PARAMS
(PID.TID 0000.0001) > darwin_seed= 56,
(PID.TID 0000.0001) > darwin_linFSConserve= .TRUE.,
(PID.TID 0000.0001) > darwin_allometric= .TRUE.,
(PID.TID 0000.0001) > KDOC=  2.3148148148148148e-07,  ! .02/day
(PID.TID 0000.0001) > KDON=  2.3148148148148148e-07,
(PID.TID 0000.0001) > KDOP=  2.3148148148148148e-07,
(PID.TID 0000.0001) > KDOFe= 2.3148148148148148e-07,
(PID.TID 0000.0001) > KPOC=  4.6296296296296297e-07,  ! .04/day
(PID.TID 0000.0001) > KPON=  4.6296296296296297e-07,
(PID.TID 0000.0001) > KPOP=  4.6296296296296297e-07,
(PID.TID 0000.0001) > KPOFe= 4.6296296296296297e-07,
(PID.TID 0000.0001) > KPOSi= 3.819444444444444e-08,   ! .0033/day,
(PID.TID 0000.0001) ># alpfe= 0.05D0,  ! 1D model
(PID.TID 0000.0001) > alpfe= 1.0D0,   ! 3D model
(PID.TID 0000.0001) > scav= 5.092592592592593e-08  ! 4.4D-3/day,
(PID.TID 0000.0001) > freefemax= .1D-3
(PID.TID 0000.0001) > depthfesed= 1000D0,
(PID.TID 0000.0001) > katten_chl= .03D0,
(PID.TID 0000.0001) > PARmin= 0.1D0,
(PID.TID 0000.0001) > PAR_oxi = 0.0,
(PID.TID 0000.0001) > phygrazmin= 0.,
(PID.TID 0000.0001) >#knita=0.,
(PID.TID 0000.0001) > synthcost= 2.33D0,
(PID.TID 0000.0001) > phymin= 0.,
(PID.TID 0000.0001) > /
(PID.TID 0000.0001) > &DARWIN_RADTRANS_PARAMS
(PID.TID 0000.0001) > /
(PID.TID 0000.0001) > &DARWIN_TRAIT_PARAMS
(PID.TID 0000.0001) > tempmax = 20.0,
(PID.TID 0000.0001) > temprange = 22.0,
(PID.TID 0000.0001) > val_R_PC=0.,
(PID.TID 0000.0001) > val_R_PC_ZOO=0.,
(PID.TID 0000.0001) > /
(PID.TID 0000.0001) > &DARWIN_ALLOMETRIC_PARAMS
(PID.TID 0000.0001) > nPro=2,
(PID.TID 0000.0001) > nSyn=3,
(PID.TID 0000.0001) > nEuk=5,
(PID.TID 0000.0001) > nDiatom=15,
(PID.TID 0000.0001) > ngrazer=30,
(PID.TID 0000.0001) > pp_sig_val=0.5,
(PID.TID 0000.0001) > /
(PID.TID 0000.0001) 
(PID.TID 0000.0001)  ===================================
(PID.TID 0000.0001)  DIAGNOSTICS_READPARMS: opening data.diagnostics
(PID.TID 0000.0001)  OPEN_COPY_DATA_FILE: opening file data.diagnostics
(PID.TID 0000.0001) // =======================================================
(PID.TID 0000.0001) // Parameter file "data.diagnostics"
(PID.TID 0000.0001) // =======================================================
(PID.TID 0000.0001) > &diagnostics_list
(PID.TID 0000.0001) > filename(1)= 'darwin',
(PID.TID 0000.0001) > frequency(1)= 10800.,
(PID.TID 0000.0001) > fields(1,1)= 'TRAC01  ',
(PID.TID 0000.0001) > fields(2,1)= 'TRAC02  ',
(PID.TID 0000.0001) > fields(3,1)= 'TRAC03  ',
(PID.TID 0000.0001) > fields(4,1)= 'TRAC04  ',
(PID.TID 0000.0001) > fields(5,1)= 'TRAC05  ',
(PID.TID 0000.0001) > fields(6,1)= 'TRAC06  ',
(PID.TID 0000.0001) > fields(7,1)= 'TRAC07  ',
(PID.TID 0000.0001) > fields(8,1)= 'TRAC08  ',
(PID.TID 0000.0001) > fields(9,1)= 'TRAC09  ',
(PID.TID 0000.0001) > fields(10,1)= 'TRAC10  ',
(PID.TID 0000.0001) > fields(11,1)= 'TRAC11  ',
(PID.TID 0000.0001) > fields(12,1)= 'TRAC12  ',
(PID.TID 0000.0001) > fields(13,1)= 'TRAC13  ',
(PID.TID 0000.0001) > fields(14,1)= 'TRAC14  ',
(PID.TID 0000.0001) > fields(15,1)= 'TRAC15  ',
(PID.TID 0000.0001) > fields(16,1)= 'TRAC16  ',
(PID.TID 0000.0001) > fields(17,1)= 'TRAC17  ',
(PID.TID 0000.0001) > fields(18,1)= 'TRAC18  ',
(PID.TID 0000.0001) > fields(19,1)= 'TRAC19  ',
(PID.TID 0000.0001) > fields(20,1)= 'TRAC20  ',
(PID.TID 0000.0001) > fields(21,1)= 'TRAC21  ',
(PID.TID 0000.0001) > fields(22,1)= 'TRAC22  ',
(PID.TID 0000.0001) > fields(23,1)= 'TRAC23  ',
(PID.TID 0000.0001) > fields(24,1)= 'TRAC24  ',
(PID.TID 0000.0001) > fields(25,1)= 'TRAC25  ',
(PID.TID 0000.0001) > fields(26,1)= 'TRAC26  ',
(PID.TID 0000.0001) > fields(27,1)= 'TRAC27  ',
(PID.TID 0000.0001) > fields(28,1)= 'TRAC28  ',
(PID.TID 0000.0001) > fields(29,1)= 'TRAC29  ',
(PID.TID 0000.0001) > fields(30,1)= 'TRAC30  ',
(PID.TID 0000.0001) > fields(31,1)= 'TRAC31  ',
(PID.TID 0000.0001) > fields(32,1)= 'TRAC32  ',
(PID.TID 0000.0001) > fields(33,1)= 'TRAC33  ',
(PID.TID 0000.0001) > fields(34,1)= 'TRAC34  ',
(PID.TID 0000.0001) > fields(35,1)= 'TRAC35  ',
(PID.TID 0000.0001) > fields(36,1)= 'TRAC36  ',
(PID.TID 0000.0001) > fields(37,1)= 'TRAC37  ',
(PID.TID 0000.0001) > fields(38,1)= 'TRAC38  ',
(PID.TID 0000.0001) > fields(39,1)= 'TRAC39  ',
(PID.TID 0000.0001) > fields(40,1)= 'TRAC40  ',
(PID.TID 0000.0001) > fields(41,1)= 'TRAC41  ',
(PID.TID 0000.0001) > fields(42,1)= 'TRAC42  ',
(PID.TID 0000.0001) > fields(43,1)= 'TRAC43  ',
(PID.TID 0000.0001) > fields(44,1)= 'TRAC44  ',
(PID.TID 0000.0001) > fields(45,1)= 'TRAC45  ',
(PID.TID 0000.0001) > fields(46,1)= 'TRAC46  ',
(PID.TID 0000.0001) > fields(47,1)= 'TRAC47  ',
(PID.TID 0000.0001) > fields(48,1)= 'TRAC48  ',
(PID.TID 0000.0001) > fields(49,1)= 'TRAC49  ',
(PID.TID 0000.0001) > fields(50,1)= 'TRAC50  ',
(PID.TID 0000.0001) > fields(51,1)= 'TRAC51  ',
(PID.TID 0000.0001) > fields(52,1)= 'TRAC52  ',
(PID.TID 0000.0001) > fields(53,1)= 'TRAC53  ',
(PID.TID 0000.0001) > fields(54,1)= 'TRAC54  ',
(PID.TID 0000.0001) > fields(55,1)= 'TRAC55  ',
(PID.TID 0000.0001) > fields(56,1)= 'TRAC56  ',
(PID.TID 0000.0001) > fields(57,1)= 'TRAC57  ',
(PID.TID 0000.0001) > fields(58,1)= 'TRAC58  ',
(PID.TID 0000.0001) > fields(59,1)= 'TRAC59  ',
(PID.TID 0000.0001) > fields(60,1)= 'TRAC60  ',
(PID.TID 0000.0001) > fields(61,1)= 'TRAC61  ',
(PID.TID 0000.0001) > fields(62,1)= 'TRAC62  ',
(PID.TID 0000.0001) > fields(63,1)= 'TRAC63  ',
(PID.TID 0000.0001) > fields(64,1)= 'TRAC64  ',
(PID.TID 0000.0001) > fields(65,1)= 'TRAC65  ',
(PID.TID 0000.0001) > fields(66,1)= 'TRAC66  ',
(PID.TID 0000.0001) > fields(67,1)= 'TRAC67  ',
(PID.TID 0000.0001) > fields(68,1)= 'TRAC68  ',
(PID.TID 0000.0001) > fields(69,1)= 'TRAC69  ',
(PID.TID 0000.0001) > fields(70,1)= 'TRAC70  ',
(PID.TID 0000.0001) > fields(71,1)= 'TRAC71  ',
(PID.TID 0000.0001) > fields(72,1)= 'TRAC72  ',
(PID.TID 0000.0001) > fields(73,1)= 'TRAC73  ',
(PID.TID 0000.0001) > fields(74,1)= 'TRAC74  ',
(PID.TID 0000.0001) > fields(75,1)= 'TRAC75  ',
(PID.TID 0000.0001) > fields(76,1)= 'TRAC76  ',
(PID.TID 0000.0001) > fields(77,1)= 'TRAC77  ',
(PID.TID 0000.0001) > fields(78,1)= 'TRAC78  ',
(PID.TID 0000.0001) > fields(79,1)= 'TRAC79  ',
(PID.TID 0000.0001) > fields(80,1)= 'TRAC80  ',
(PID.TID 0000.0001) > fields(81,1)= 'TRAC81  ',
(PID.TID 0000.0001) > fields(82,1)= 'TRAC82  ',
(PID.TID 0000.0001) > fields(83,1)= 'TRAC83  ',
(PID.TID 0000.0001) > fields(84,1)= 'TRAC84  ',
(PID.TID 0000.0001) > fields(85,1)= 'TRAC85  ',
(PID.TID 0000.0001) > fields(86,1)= 'TRAC86  ',
(PID.TID 0000.0001) > fields(87,1)= 'TRAC87  ',
(PID.TID 0000.0001) > fields(88,1)= 'TRAC88  ',
(PID.TID 0000.0001) > fields(89,1)= 'TRAC89  ',
(PID.TID 0000.0001) > fields(90,1)= 'TRAC90  ',
(PID.TID 0000.0001) > fields(91,1)= 'TRAC91  ',
(PID.TID 0000.0001) > fields(92,1)= 'TRAC92  ',
(PID.TID 0000.0001) > fields(93,1)= 'TRAC93  ',
(PID.TID 0000.0001) > fields(94,1)= 'TRAC94  ',
(PID.TID 0000.0001) > fields(95,1)= 'TRAC95  ',
(PID.TID 0000.0001) > fields(96,1)= 'TRAC96  ',
(PID.TID 0000.0001) > fields(97,1)= 'TRAC97  ',
(PID.TID 0000.0001) > fields(98,1)= 'TRAC98  ',
(PID.TID 0000.0001) > fields(99,1)= 'TRAC99  ',
(PID.TID 0000.0001) > fields(100,1)= 'TRAC0a  ',
(PID.TID 0000.0001) > fields(101,1)= 'TRAC0b  ',
(PID.TID 0000.0001) > fields(102,1)= 'TRAC0c  ',
(PID.TID 0000.0001) > fields(103,1)= 'TRAC0d  ',
(PID.TID 0000.0001) > fields(104,1)= 'TRAC0e  ',
(PID.TID 0000.0001) > fields(105,1)= 'TRAC0f  ',
(PID.TID 0000.0001) > fields(106,1)= 'TRAC0g  ',
(PID.TID 0000.0001) > fields(107,1)= 'TRAC0h  ',
(PID.TID 0000.0001) > fields(108,1)= 'TRAC0i  ',
(PID.TID 0000.0001) > fields(109,1)= 'TRAC0j  ',
(PID.TID 0000.0001) > fields(110,1)= 'TRAC0k  ',
(PID.TID 0000.0001) > fields(111,1)= 'TRAC0l  ',
(PID.TID 0000.0001) > fields(112,1)= 'TRAC0m  ',
(PID.TID 0000.0001) > fields(113,1)= 'TRAC0n  ',
(PID.TID 0000.0001) > fields(114,1)= 'TRAC0o  ',
(PID.TID 0000.0001) > fields(115,1)= 'TRAC0p  ',
(PID.TID 0000.0001) > fields(116,1)= 'TRAC0q  ',
(PID.TID 0000.0001) > fields(117,1)= 'TRAC0r  ',
(PID.TID 0000.0001) > fields(118,1)= 'TRAC0s  ',
(PID.TID 0000.0001) > fields(119,1)= 'TRAC0t  ',
(PID.TID 0000.0001) > fields(120,1)= 'TRAC0u  ',
(PID.TID 0000.0001) > fields(121,1)= 'TRAC0v  ',
(PID.TID 0000.0001) > fields(122,1)= 'TRAC0w  ',
(PID.TID 0000.0001) > fields(123,1)= 'TRAC0x  ',
(PID.TID 0000.0001) > fields(124,1)= 'TRAC0y  ',
(PID.TID 0000.0001) > fields(125,1)= 'TRAC0z  ',
(PID.TID 0000.0001) > fields(126,1)= 'TRAC0A  ',
(PID.TID 0000.0001) > fields(127,1)= 'TRAC0B  ',
(PID.TID 0000.0001) > fields(128,1)= 'TRAC0C  ',
(PID.TID 0000.0001) > fields(129,1)= 'TRAC0D  ',
(PID.TID 0000.0001) > fields(130,1)= 'TRAC0E  ',
(PID.TID 0000.0001) > fields(131,1)= 'TRAC0F  ',
(PID.TID 0000.0001) > fields(132,1)= 'TRAC0G  ',
(PID.TID 0000.0001) > fields(133,1)= 'TRAC0H  ',
(PID.TID 0000.0001) > fields(134,1)= 'TRAC0I  ',
(PID.TID 0000.0001) > fields(135,1)= 'TRAC0J  ',
(PID.TID 0000.0001) > fields(136,1)= 'TRAC0K  ',
(PID.TID 0000.0001) > fields(137,1)= 'TRAC0L  ',
(PID.TID 0000.0001) > fields(138,1)= 'TRAC0M  ',
(PID.TID 0000.0001) > fields(139,1)= 'TRAC0N  ',
(PID.TID 0000.0001) > fields(140,1)= 'TRAC0O  ',
(PID.TID 0000.0001) > fields(141,1)= 'TRAC0P  ',
(PID.TID 0000.0001) > fields(142,1)= 'TRAC0Q  ',
(PID.TID 0000.0001) > fields(143,1)= 'TRAC0R  ',
(PID.TID 0000.0001) > fields(144,1)= 'TRAC0S  ',
(PID.TID 0000.0001) > fields(145,1)= 'TRAC0T  ',
(PID.TID 0000.0001) > fields(146,1)= 'TRAC0U  ',
(PID.TID 0000.0001) > fields(147,1)= 'TRAC0V  ',
(PID.TID 0000.0001) > fields(148,1)= 'TRAC0W  ',
(PID.TID 0000.0001) > fields(149,1)= 'TRAC0X  ',
(PID.TID 0000.0001) > fields(150,1)= 'TRAC0Y  ',
(PID.TID 0000.0001) > fields(151,1)= 'TRAC0Z  ',
(PID.TID 0000.0001) > fields(152,1)= 'TRAC1a  ',
(PID.TID 0000.0001) > fields(153,1)= 'TRAC1b  ',
(PID.TID 0000.0001) > fields(154,1)= 'TRAC1c  ',
(PID.TID 0000.0001) > fields(155,1)= 'TRAC1d  ',
(PID.TID 0000.0001) > fields(156,1)= 'TRAC1e  ',
(PID.TID 0000.0001) > fields(157,1)= 'TRAC1f  ',
(PID.TID 0000.0001) > fields(158,1)= 'TRAC1g  ',
(PID.TID 0000.0001) > fields(159,1)= 'TRAC1h  ',
(PID.TID 0000.0001) > fields(160,1)= 'TRAC1i  ',
(PID.TID 0000.0001) > fields(161,1)= 'TRAC1j  ',
(PID.TID 0000.0001) > fields(162,1)= 'TRAC1k  ',
(PID.TID 0000.0001) > fields(163,1)= 'TRAC1l  ',
(PID.TID 0000.0001) > fields(164,1)= 'TRAC1m  ',
(PID.TID 0000.0001) > fields(165,1)= 'TRAC1n  ',
(PID.TID 0000.0001) > fields(166,1)= 'TRAC1o  ',
(PID.TID 0000.0001) > fields(167,1)= 'TRAC1p  ',
(PID.TID 0000.0001) > fields(168,1)= 'TRAC1q  ',
(PID.TID 0000.0001) > fields(169,1)= 'TRAC1r  ',
(PID.TID 0000.0001) > fields(170,1)= 'TRAC1s  ',
(PID.TID 0000.0001) > fields(171,1)= 'TRAC1t  ',
(PID.TID 0000.0001) > fields(172,1)= 'TRAC1u  ',
(PID.TID 0000.0001) > fields(173,1)= 'TRAC1v  ',
(PID.TID 0000.0001) > fields(174,1)= 'TRAC1w  ',
(PID.TID 0000.0001) > fields(175,1)= 'TRAC1x  ',
(PID.TID 0000.0001) > fields(176,1)= 'TRAC1y  ',
(PID.TID 0000.0001) > fields(177,1)= 'TRAC1z  ',
(PID.TID 0000.0001) > fields(178,1)= 'TRAC1A  ',
(PID.TID 0000.0001) > fields(179,1)= 'TRAC1B  ',
(PID.TID 0000.0001) > fields(180,1)= 'TRAC1C  ',
(PID.TID 0000.0001) > fields(181,1)= 'TRAC1D  ',
(PID.TID 0000.0001) > fields(182,1)= 'TRAC1E  ',
(PID.TID 0000.0001) > fields(183,1)= 'TRAC1F  ',
(PID.TID 0000.0001) > fields(184,1)= 'TRAC1G  ',
(PID.TID 0000.0001) > fields(185,1)= 'TRAC1H  ',
(PID.TID 0000.0001) > fields(186,1)= 'TRAC1I  ',
(PID.TID 0000.0001) > fields(187,1)= 'TRAC1J  ',
(PID.TID 0000.0001) > fields(188,1)= 'TRAC1K  ',
(PID.TID 0000.0001) > fields(189,1)= 'TRAC1L  ',
(PID.TID 0000.0001) > fields(190,1)= 'TRAC1M  ',
(PID.TID 0000.0001) > fields(191,1)= 'TRAC1N  ',
(PID.TID 0000.0001) > fields(192,1)= 'TRAC1O  ',
(PID.TID 0000.0001) > fields(193,1)= 'TRAC1P  ',
(PID.TID 0000.0001) > fields(194,1)= 'TRAC1Q  ',
(PID.TID 0000.0001) > fields(195,1)= 'TRAC1R  ',
(PID.TID 0000.0001) > fields(196,1)= 'TRAC1S  ',
(PID.TID 0000.0001) > fields(197,1)= 'TRAC1T  ',
(PID.TID 0000.0001) > fields(198,1)= 'TRAC1U  ',
(PID.TID 0000.0001) > fields(199,1)= 'TRAC1V  ',
(PID.TID 0000.0001) > fields(200,1)= 'TRAC1W  ',
(PID.TID 0000.0001) > fields(201,1)= 'TRAC1X  ',
(PID.TID 0000.0001) > fields(202,1)= 'TRAC1Y  ',
(PID.TID 0000.0001) > fields(203,1)= 'TRAC1Z  ',
(PID.TID 0000.0001) > fields(204,1)= 'TRAC2a  ',
(PID.TID 0000.0001) > fields(205,1)= 'TRAC2b  ',
(PID.TID 0000.0001) > fields(206,1)= 'TRAC2c  ',
(PID.TID 0000.0001) > fields(207,1)= 'TRAC2d  ',
(PID.TID 0000.0001) > /
(PID.TID 0000.0001) > &diag_statis_parms
(PID.TID 0000.0001) > /
(PID.TID 0000.0001) 
(PID.TID 0000.0001) S/R DIAGNOSTICS_READPARMS, read namelist "diagnostics_list": start
(PID.TID 0000.0001) S/R DIAGNOSTICS_READPARMS, read namelist "diagnostics_list": OK
(PID.TID 0000.0001) S/R DIAGNOSTICS_READPARMS, read namelist "DIAG_STATIS_PARMS": start
(PID.TID 0000.0001) S/R DIAGNOSTICS_READPARMS, read namelist "DIAG_STATIS_PARMS": OK
(PID.TID 0000.0001)  DIAGNOSTICS_READPARMS: global parameter summary:
(PID.TID 0000.0001)  dumpAtLast = /* always write time-ave diags at the end */
(PID.TID 0000.0001)                   F
(PID.TID 0000.0001)     ;
(PID.TID 0000.0001)  diag_mnc =   /* write NetCDF output files */
(PID.TID 0000.0001)                   T
(PID.TID 0000.0001)     ;
(PID.TID 0000.0001)  useMissingValue = /* put MissingValue where mask = 0 */
(PID.TID 0000.0001)                   F
(PID.TID 0000.0001)     ;
(PID.TID 0000.0001)  diagCG_maxIters = /* max number of iters in diag_cg2d */
(PID.TID 0000.0001)                    1000
(PID.TID 0000.0001)     ;
(PID.TID 0000.0001)  diagCG_resTarget = /* residual target for diag_cg2d */
(PID.TID 0000.0001)                 1.000000000000000E-13
(PID.TID 0000.0001)     ;
(PID.TID 0000.0001) -----------------------------------------------------
(PID.TID 0000.0001)  DIAGNOSTICS_READPARMS: active diagnostics summary:
(PID.TID 0000.0001) -----------------------------------------------------
(PID.TID 0000.0001) Creating Output Stream: darwin
(PID.TID 0000.0001) Output Frequency:      10800.000000 ; Phase:           0.000000
(PID.TID 0000.0001)  Averaging Freq.:      10800.000000 , Phase:           0.000000 , Cycle:   1
(PID.TID 0000.0001)  missing value:  1.234567000000E+05 ; for integers:   123456789
(PID.TID 0000.0001)  Levels:    will be set later
(PID.TID 0000.0001)  Fields:    TRAC01   TRAC02   TRAC03   TRAC04   TRAC05   TRAC06   TRAC07   TRAC08   TRAC09   TRAC10
(PID.TID 0000.0001)  Fields:    TRAC11   TRAC12   TRAC13   TRAC14   TRAC15   TRAC16   TRAC17   TRAC18   TRAC19   TRAC20
(PID.TID 0000.0001)  Fields:    TRAC21   TRAC22   TRAC23   TRAC24   TRAC25   TRAC26   TRAC27   TRAC28   TRAC29   TRAC30
(PID.TID 0000.0001)  Fields:    TRAC31   TRAC32   TRAC33   TRAC34   TRAC35   TRAC36   TRAC37   TRAC38   TRAC39   TRAC40
(PID.TID 0000.0001)  Fields:    TRAC41   TRAC42   TRAC43   TRAC44   TRAC45   TRAC46   TRAC47   TRAC48   TRAC49   TRAC50
(PID.TID 0000.0001)  Fields:    TRAC51   TRAC52   TRAC53   TRAC54   TRAC55   TRAC56   TRAC57   TRAC58   TRAC59   TRAC60
(PID.TID 0000.0001)  Fields:    TRAC61   TRAC62   TRAC63   TRAC64   TRAC65   TRAC66   TRAC67   TRAC68   TRAC69   TRAC70
(PID.TID 0000.0001)  Fields:    TRAC71   TRAC72   TRAC73   TRAC74   TRAC75   TRAC76   TRAC77   TRAC78   TRAC79   TRAC80
(PID.TID 0000.0001)  Fields:    TRAC81   TRAC82   TRAC83   TRAC84   TRAC85   TRAC86   TRAC87   TRAC88   TRAC89   TRAC90
(PID.TID 0000.0001)  Fields:    TRAC91   TRAC92   TRAC93   TRAC94   TRAC95   TRAC96   TRAC97   TRAC98   TRAC99   TRAC0a
(PID.TID 0000.0001)  Fields:    TRAC0b   TRAC0c   TRAC0d   TRAC0e   TRAC0f   TRAC0g   TRAC0h   TRAC0i   TRAC0j   TRAC0k
(PID.TID 0000.0001)  Fields:    TRAC0l   TRAC0m   TRAC0n   TRAC0o   TRAC0p   TRAC0q   TRAC0r   TRAC0s   TRAC0t   TRAC0u
(PID.TID 0000.0001)  Fields:    TRAC0v   TRAC0w   TRAC0x   TRAC0y   TRAC0z   TRAC0A   TRAC0B   TRAC0C   TRAC0D   TRAC0E
(PID.TID 0000.0001)  Fields:    TRAC0F   TRAC0G   TRAC0H   TRAC0I   TRAC0J   TRAC0K   TRAC0L   TRAC0M   TRAC0N   TRAC0O
(PID.TID 0000.0001)  Fields:    TRAC0P   TRAC0Q   TRAC0R   TRAC0S   TRAC0T   TRAC0U   TRAC0V   TRAC0W   TRAC0X   TRAC0Y
(PID.TID 0000.0001)  Fields:    TRAC0Z   TRAC1a   TRAC1b   TRAC1c   TRAC1d   TRAC1e   TRAC1f   TRAC1g   TRAC1h   TRAC1i
(PID.TID 0000.0001)  Fields:    TRAC1j   TRAC1k   TRAC1l   TRAC1m   TRAC1n   TRAC1o   TRAC1p   TRAC1q   TRAC1r   TRAC1s
(PID.TID 0000.0001)  Fields:    TRAC1t   TRAC1u   TRAC1v   TRAC1w   TRAC1x   TRAC1y   TRAC1z   TRAC1A   TRAC1B   TRAC1C
(PID.TID 0000.0001)  Fields:    TRAC1D   TRAC1E   TRAC1F   TRAC1G   TRAC1H   TRAC1I   TRAC1J   TRAC1K   TRAC1L   TRAC1M
(PID.TID 0000.0001)  Fields:    TRAC1N   TRAC1O   TRAC1P   TRAC1Q   TRAC1R   TRAC1S   TRAC1T   TRAC1U   TRAC1V   TRAC1W
(PID.TID 0000.0001)  Fields:    TRAC1X   TRAC1Y   TRAC1Z   TRAC2a   TRAC2b   TRAC2c   TRAC2d
(PID.TID 0000.0001) -----------------------------------------------------
(PID.TID 0000.0001)  DIAGNOSTICS_READPARMS: statistics diags. summary:
(PID.TID 0000.0001) -----------------------------------------------------
(PID.TID 0000.0001) 
(PID.TID 0000.0001) SET_PARMS: done
(PID.TID 0000.0001) Enter INI_VERTICAL_GRID: setInterFDr=    T ; setCenterDr=    F
(PID.TID 0000.0001) %MON XC_max                       =   3.5859375000000000E+02
(PID.TID 0000.0001) %MON XC_min                       =   1.4062500000000000E+00
(PID.TID 0000.0001) %MON XC_mean                      =   1.8000000000000000E+02
(PID.TID 0000.0001) %MON XC_sd                        =   1.0391987692598804E+02
(PID.TID 0000.0001) %MON XG_max                       =   3.5718750000000000E+02
(PID.TID 0000.0001) %MON XG_min                       =   0.0000000000000000E+00
(PID.TID 0000.0001) %MON XG_mean                      =   1.7859375000000000E+02
(PID.TID 0000.0001) %MON XG_sd                        =   1.0391987692598804E+02
(PID.TID 0000.0001) %MON DXC_max                      =   3.1259246843154915E+05
(PID.TID 0000.0001) %MON DXC_min                      =   7.6737143816222988E+03
(PID.TID 0000.0001) %MON DXC_mean                     =   1.9908248704233844E+05
(PID.TID 0000.0001) %MON DXC_sd                       =   9.6190602240066684E+04
(PID.TID 0000.0001) %MON DXF_max                      =   3.1259246843154915E+05
(PID.TID 0000.0001) %MON DXF_min                      =   7.6737143816222988E+03
(PID.TID 0000.0001) %MON DXF_mean                     =   1.9908248704233844E+05
(PID.TID 0000.0001) %MON DXF_sd                       =   9.6190602240066684E+04
(PID.TID 0000.0001) %MON DXG_max                      =   3.1268664380260912E+05
(PID.TID 0000.0001) %MON DXG_min                      =   0.0000000000000000E+00
(PID.TID 0000.0001) %MON DXG_mean                     =   1.9902252711932667E+05
(PID.TID 0000.0001) %MON DXG_sd                       =   9.6314600686012433E+04
(PID.TID 0000.0001) %MON DXV_max                      =   3.1268664380260912E+05
(PID.TID 0000.0001) %MON DXV_min                      =   0.0000000000000000E+00
(PID.TID 0000.0001) %MON DXV_mean                     =   1.9902252711932667E+05
(PID.TID 0000.0001) %MON DXV_sd                       =   9.6314600686012433E+04
(PID.TID 0000.0001) %MON YC_max                       =   8.8593750000000000E+01
(PID.TID 0000.0001) %MON YC_min                       =  -8.8593750000000000E+01
(PID.TID 0000.0001) %MON YC_mean                      =   0.0000000000000000E+00
(PID.TID 0000.0001) %MON YC_sd                        =   5.1955180880375153E+01
(PID.TID 0000.0001) %MON YG_max                       =   8.7187500000000000E+01
(PID.TID 0000.0001) %MON YG_min                       =  -9.0000000000000000E+01
(PID.TID 0000.0001) %MON YG_mean                      =  -1.4062500000000000E+00
(PID.TID 0000.0001) %MON YG_sd                        =   5.1955180880375153E+01
(PID.TID 0000.0001) %MON DYC_max                      =   3.1268664380260912E+05
(PID.TID 0000.0001) %MON DYC_min                      =   3.1268664380260912E+05
(PID.TID 0000.0001) %MON DYC_mean                     =   3.1268664380262379E+05
(PID.TID 0000.0001) %MON DYC_sd                       =   1.4668330550193787E-08
(PID.TID 0000.0001) %MON DYF_max                      =   3.1268664380260912E+05
(PID.TID 0000.0001) %MON DYF_min                      =   3.1268664380260912E+05
(PID.TID 0000.0001) %MON DYF_mean                     =   3.1268664380262379E+05
(PID.TID 0000.0001) %MON DYF_sd                       =   1.4668330550193787E-08
(PID.TID 0000.0001) %MON DYG_max                      =   3.1268664380260912E+05
(PID.TID 0000.0001) %MON DYG_min                      =   3.1268664380260912E+05
(PID.TID 0000.0001) %MON DYG_mean                     =   3.1268664380262379E+05
(PID.TID 0000.0001) %MON DYG_sd                       =   1.4668330550193787E-08
(PID.TID 0000.0001) %MON DYU_max                      =   3.1268664380260912E+05
(PID.TID 0000.0001) %MON DYU_min                      =   3.1268664380260912E+05
(PID.TID 0000.0001) %MON DYU_mean                     =   3.1268664380262379E+05
(PID.TID 0000.0001) %MON DYU_sd                       =   1.4668330550193787E-08
(PID.TID 0000.0001) %MON RA_max                       =   9.7733676797555420E+10
(PID.TID 0000.0001) %MON RA_min                       =   2.3992270990190182E+09
(PID.TID 0000.0001) %MON RA_mean                      =   6.2244185031957382E+10
(PID.TID 0000.0001) %MON RA_sd                        =   3.0074496923945278E+10
(PID.TID 0000.0001) %MON RAW_max                      =   9.7733676797555420E+10
(PID.TID 0000.0001) %MON RAW_min                      =   2.3992270990190182E+09
(PID.TID 0000.0001) %MON RAW_mean                     =   6.2244185031957382E+10
(PID.TID 0000.0001) %MON RAW_sd                       =   3.0074496923945278E+10
(PID.TID 0000.0001) %MON RAS_max                      =   9.7763121221868164E+10
(PID.TID 0000.0001) %MON RAS_min                      =   0.0000000000000000E+00
(PID.TID 0000.0001) %MON RAS_mean                     =   6.2225438247156563E+10
(PID.TID 0000.0001) %MON RAS_sd                       =   3.0113265689232788E+10
(PID.TID 0000.0001) %MON RAZ_max                      =   9.7763121221868164E+10
(PID.TID 0000.0001) %MON RAZ_min                      =   0.0000000000000000E+00
(PID.TID 0000.0001) %MON RAZ_mean                     =   6.2225438247156563E+10
(PID.TID 0000.0001) %MON RAZ_sd                       =   3.0113265689232788E+10
(PID.TID 0000.0001) %MON AngleCS_max                  =   1.0000000000000000E+00
(PID.TID 0000.0001) %MON AngleCS_min                  =   1.0000000000000000E+00
(PID.TID 0000.0001) %MON AngleCS_mean                 =   1.0000000000000000E+00
(PID.TID 0000.0001) %MON AngleCS_sd                   =   0.0000000000000000E+00
(PID.TID 0000.0001) %MON AngleSN_max                  =   0.0000000000000000E+00
(PID.TID 0000.0001) %MON AngleSN_min                  =   0.0000000000000000E+00
(PID.TID 0000.0001) %MON AngleSN_mean                 =   0.0000000000000000E+00
(PID.TID 0000.0001) %MON AngleSN_sd                   =   0.0000000000000000E+00
(PID.TID 0000.0001)  MDS_READ_FIELD: opening global file: ../../monod_global_128x64x15/input/input_ocmip/depth_g77.bin
(PID.TID 0000.0001) // =======================================================
(PID.TID 0000.0001) // Field Model R_low (ini_masks_etc)
(PID.TID 0000.0001) // CMIN =         -5.200000000000000E+03
(PID.TID 0000.0001) // CMAX =         -5.000000000000000E+01
(PID.TID 0000.0001) // CINT =          1.907407407407407E+02
(PID.TID 0000.0001) // SYMBOLS (CMIN->CMAX): -abcdefghijklmnopqrstuvwxyz+
(PID.TID 0000.0001) //                  0.0: .
(PID.TID 0000.0001) // RANGE I (Lo:Hi:Step):(    -3:   132:     1)
(PID.TID 0000.0001) // RANGE J (Lo:Hi:Step):(    68:    -3:    -1)
(PID.TID 0000.0001) // RANGE K (Lo:Hi:Step):(   1:   1:   1)
(PID.TID 0000.0001) // =======================================================
(PID.TID 0000.0001) K =   1
(PID.TID 0000.0001) //                I=6       I=16      I=26      I=36      I=46      I=56      I=66      I=68      I=78      I=88      I=98      I=108     I=118     I=128
(PID.TID 0000.0001) // |--J--|321012345|789012345|789012345|789012345|789012345|789012345|789012345|781234567|901234567|901234567|901234567|901234567|901234567|901234567|9012
(PID.TID 0000.0001) //     68 ................................................................................................................................................
(PID.TID 0000.0001) //     67 ................................................................................................................................................
(PID.TID 0000.0001) //     66 ................................................................................................................................................
(PID.TID 0000.0001) //     65 ................................................................................................................................................
(PID.TID 0000.0001) //     64 ................................................................................................................................................
(PID.TID 0000.0001) //     63 ................................................................................................................................................
(PID.TID 0000.0001) //     62 ................................................................................................................................................
(PID.TID 0000.0001) //     61 +zvoovxyyy...+zzzzz+++++...............................................................................................................++zvoovxy
(PID.TID 0000.0001) //     60 +yvmmorw.....+++++zzzzz+.........................................................................................+....................zz+yvmmorw
(PID.TID 0000.0001) //     59 ojjjmmooty++zzzzzzzzzz+.........................................................................................+xwwwyz..............+ztojjjmmoo
(PID.TID 0000.0001) //     58 troommmorxzz+++zzzzz++.............................................................................................wttyz............+yvttroommmo
(PID.TID 0000.0001) //     57 vrmmmmmrv............................................................................................................xxz............xwvvvrmmmmmr
(PID.TID 0000.0001) //     56 vrjjrvyz..............................................................................................................zy........yyzxx..zvrjjrvyz
(PID.TID 0000.0001) //     55 ywrrvy..............................................................++......++.......................................+yvv.....vrrtxyyzyyywrrvy..
(PID.TID 0000.0001) //     54 xzz++............................................................vtt++++.vtt++++......................................yommv..vmmrvtoortwxzz++...
(PID.TID 0000.0001) //     53 y...++.................................................++++...wvtjggmrz+tjggmrz+++....xojmt...........................+tmjjmmmmrtoootwyxy...++..
(PID.TID 0000.0001) //     52 ....++................................................+zyyy...rrojjrmjjtojjrmjjt+.yvrjjjjjjr............................wtjjjjmrommmtvtt....++..
(PID.TID 0000.0001) //     51 .......................................................zvvx..ggjjmotvoomjmotvoomjdddddgggjjjrz..........................+yrjjjjjmmjjmmry........
(PID.TID 0000.0001) //     50 y+.....................................................+vvxyd--ggdd-----gdd-------ddddddgggjmox..........................+yrogggjmmggggty+......
(PID.TID 0000.0001) //     49 gj+....................................................+vvmd----g-------g--------------ddddgjomx..........................+wrgggjmojggddgj+.....
(PID.TID 0000.0001) //     48 vxx.....................................................vd------g-------g--------------ddgggjmmv.....................+xrrxwgdggjjoomjggjvxx.....
(PID.TID 0000.0001) //     47 v......................................................m------d-gd------gd-------------ddddggjjt...................ywgd--dggdddgrrojgddgv.......
(PID.TID 0000.0001) //     46 w.....................................................xd-----gd-jdgd----jdgd-----------dd---dddm..................rgddg-----dggmttvogdjjw.......
(PID.TID 0000.0001) //     45 m.....................................................m-----gd--gjjjjj--gjjjjj-------------ddddgt................tgddddg-ggggjoooojddgomm.......
(PID.TID 0000.0001) //     44 .................................................+.wttg----gj----jgggg---jgggg---dd-------ddddggjw..............zj--ggdd--dgjomjjoj-djmm........
(PID.TID 0000.0001) //     43 ................................................+zxmjrg----------dddggdd-dddggdd--d----ddddggddggmx............+wg--dd----djmmgddjd-djow........
(PID.TID 0000.0001) //     42 ...............................................+zyomjjrmd-----------djjj----djjjjdgd----dddddddgggj............wwd-------ddjmgd---d-gmx.........
(PID.TID 0000.0001) //     41 .........................tt.....................mgjjggrgddjddd----d---gg--d---ggtjjggd----ddddggggjm++.......vwwwv-------dgmjd------go..........
(PID.TID 0000.0001) //     40 .........................roo.................yytdd--gdmogggjjgd--jomd-gj-jomd-gjgdgovd-------ddggggjmm.......xxx.xvj-----dgmgd--ddddgt..........
(PID.TID 0000.0001) //     39 ........................xjjjr.....vrr.......vovtd---ddgogjgddggggmjjjmmmgmjjjmmmg--gmd--------dgggjjmmt......oortw.tttg-ddgmgd--ddgjjr..........
(PID.TID 0000.0001) //     38 .......................rmjggjt...rmmo+.....xrov.m--dddgogddddgggddgddddjddgddddjg----------dd-ddgggjmjmmov.....ytmmggttdddjjjdd---dtjr..........
(PID.TID 0000.0001) //     37 ....................zvvtjggggt..+jjjrx+....vmmy.t--ddgmmg--ddjmmg-d-d--dg-d-d--ddd-------dddddddggggjjmmjjjo...toovttwxjdddjjgd----ddo..........
(PID.TID 0000.0001) //     36 ......................tjmgdddrw.+jjjrxz....vty...--gmommmgdddmgor------gr------ggmgg--d---dddddddgggjmmjjggjm+.ww......rjdddgjgd----gm..........
(PID.TID 0000.0001) //     35 ......................dgjmgggmrv+jgjoxz....ww....--mjjorrommjgdjmj---d--mj---d--dgmgdddd-dddddddggggggjjjjjjjtx.........zyggddgjjgggmdjx........
(PID.TID 0000.0001) //     34 rrrrrtz..............rdddjmjgmrmgggjjw........zyxojjggmgggjmjjdgdjd--d--djd--d---djodddddddddddddgggggjjjjjmtrmr..........ymgggjmjggjddgrrrrrtz.
(PID.TID 0000.0001) //     33 dddddgr.............tddggggmjjogdddjjj.........zxxojgjmgggjoojdddmg--dd-dmg--dd--ddmjdgdddddgddddgggggjjjmmtrmmy...........+jgggjmjjdddddddddgr.
(PID.TID 0000.0001) //     32 gdddggo............rgddgddgjjjjddddgddm.........xx..+ttttrrrojggggo--dd-ggo--dd----dgddddddddddddddgggjjjjjtror..............oogdddgggjjgdddggo.
(PID.TID 0000.0001) //     31 jgddgdgy..........vgddgwrjgjmrg--ddgdddr........xxz.....y.xvtomjjdd---ddjdd---dd-jdddddddddddddddddggjjjjgggjjj................tg----dgmjgddgdgy
(PID.TID 0000.0001) //     30 jgdgd-dm..........vggjjovmgjmwd---dgddddmy...+xxxxy++....oo.vtjjgddg--ddgddg--dddjgddddddgjdddddddggjjjgggggggg................zd---dgjmjgdgd-dm
(PID.TID 0000.0001) //     29 jggd--dgy.........wjmmmjmyomjm---ddgdddddgjmooxxxx++++.+..vtvxrrgddjjjjggddjjjjggjmg-dgddgrgddgggggjmmjggggggddr...............yd---dgjmjggd--dg
(PID.TID 0000.0001) //     28 jjdd---gy.........wtr.gggymmjg--ddgj-djdggggggmxx+.....+ommromrvorrrtmmgorrrtmmgdgm--dgddgggggggggjjmjgggggggddd..............+gg---dgmmjjdd---g
(PID.TID 0000.0001) //     27 jgdd---g..........ww..gggymmjgdd-djj-dd---dgjjw+........vtmmmjjxmmotvrrgmmotvrrgddd-ggmtvroggggggjjmjjggjjggddddo.............ygd---dgjmjgdd---g
(PID.TID 0000.0001) //     26 jgdd---o..........rx..ddoromjgdd--gj-d-----jtw+..........ytrrotwrmrzvrjgrmrzvrjgdddgggojmromjgggjjjmjggggggddddjjg............yjd---dgjmjgdd---o
(PID.TID 0000.0001) //     25 jdd--dmo.........roz.rdomgjmmgddddgjd---dggox.............ztxxzyrmmmtv--rmmmtv----dgggggggmmjggggjjjjgggggggggmjddj...........rjgd--ddgmjdd--dmo
(PID.TID 0000.0001) //     24 gd---gogt.......zmjx.jdgdgggmjggddgjd--ddgmr..............zrrtmwoggjto--oggjto----ddddgggggjmjjjjjmjjgggjjjjjmmgdjj..........vjgd----djmgd---gog
(PID.TID 0000.0001) //     23 jgdddojdo.......wjgowj---dgjjmjggggjdddmdddr..............yjrtmrmjgjtmd-mjgjtmd------ddjmjgggggjjjmmmmmmmjjjjjjjggo........+omgddddddgjmjgdddojd
(PID.TID 0000.0001) //     22 jgddmgddj+.....yrddoojddgjggggmjgggooommgddd+.............yjrtororjmt-d-orjmt-d-------dddggdgggggjjmmmjjjjjjjgggggw........rjjmoojdddgjmjgddmgdd
(PID.TID 0000.0001) //     21 ggjjjdddgv.....mrddrogdjjgdddgjmjjmrgjmmgddgt....++.......rgrvovtrmom---trmom------------ddddgggggjmmjjjggjjjggggg+.......wjgggmmjdgggjjggjjjddd
(PID.TID 0000.0001) //     20 ggjgd---dgy.xjgjjddjjjjjgddddggjjjjgggdddddgjttjjjjt......gggrvtt.xrj--dt.xrj--d----------ddggjjggjjjjjjjjjjgggggj.......zjdddddgggggjjjggjgd---
(PID.TID 0000.0001) //     19 jjgd----gggjgjggddgjjjjgd-dddggjjjgggggddddddd------gv...jdddjtww..xjd-dw..xjd-dj--d-------dddddgggjjjgggjjjgggggj......zj-----ddggggjjjjjgd----
(PID.TID 0000.0001) //     18 jjgggdddjg--gjggdgjjjjjgd--dggjjjjjjjjggggddddd------dj..jddddjvy..tjjggy..tjjggdg-----------ddddggjjjggggjjjjgggv......r-------dddgjjjjjjgggddd
(PID.TID 0000.0001) //     17 gggjgdgdddddd--djjjjjjjgddddggjjjjjjjjjjggggdddddddddddvyjddddgv..wwwwrj..wwwwrjd-d-----------ddggjjjjjggggggjjjjz...++t--------ddddgjjjgggjgdgd
(PID.TID 0000.0001) //     16 jjgggdjgdddd--djjjjjjjjgddgjjjjjjjjjjjjjjjgggggdddddggdjrjddddj..vtrjgd-.vtrjgd----dddd-----ddddggjjjjjggdddggjjj....++r----------ddgjjjjjgggdjg
(PID.TID 0000.0001) //     15 jjjjjjjjgdddddgjggggggggdgjx.yjjjggggjjjjjjjjjgggggjjjgjjjdddgjjjjjjjd--jjjjjd------ddddddddddggjjjjjjggddddddggj....++xtjddggdddgjdgggjjjjjjjjj
(PID.TID 0000.0001) //     14 jjjjjjjjjjjjjgdddgjjjgggddgjjjjjjgdgggggggjjgggggggjjjjjggddjjjjjjjd----jjjd------dddddggjggggggjjjjjgggdddddddgjj..+jjjjjjjjjjjjgjjddggjjjjjjjj
(PID.TID 0000.0001) //     13 jjjjjjjgddgggg---gjggggddddjjjjjjgdddgggggggdddddddggjjjjgggjgjjjg------jg------ddddgjjjjjjjjjjjjjjjgggdgd----ddgjjjjjjjjjjjjjjjjggggddgjjjjjjjg
(PID.TID 0000.0001) //     12 gjggdd----dd--------------djjjjjjjdddddgdddddddddddddgjjjjjjjgd-----dddd----dddddddgjjjjjjjjjgggggdddddddddd---dddgjjjjgggjjjjjjjjvggggggjggdd--
(PID.TID 0000.0001) //     11 ------------------------dddddjjjrtjddddddddddddddddddgggjjjjjjjgddddddggddddddgggggjjjjjjgggdggddd--------------ddgjjjjjrrrvttrrjjjgggdd--------
(PID.TID 0000.0001) //     10 ----ggd--------d--ddgdddddgggggjjjjjjjjjjjjjjjjgggjjjjggggjjjjjjjjjjjjjjjjjjjjjjjjjjjjjgggddddd-----------dddddddggjrv..zvjjjggdddddd-------ggd-
(PID.TID 0000.0001) //      9 --ddjjggjjdddddjjggjtw..wrrrrrrrvvvw+........zxx++...zxvttrrjrjjjjjjjjjjjjjjjjjjjjgggggggggddddddddddddddddgdddggjt+...yxrjgdddddddgd-----ddjjgg
(PID.TID 0000.0001) //      8 jjjjjjjtvrjjjjv..............++.............................+trrjjjjjjggjjjjjjggggggdddddddddggjjjjggggddggjjjjjtz....+xxrjgggddddddddddjjjjjjjt
(PID.TID 0000.0001) //      7 .................................................................vttvtjg.vttvtjggggddgggddgggjjjjrttrrvxyzzyyyyy+......xxvtrjjggggggjjv+........
(PID.TID 0000.0001) //      6 ...............................................................+zyyyywjjzyyyywjjjjjgggjjrtwx+.........................+yxxyyyxwttvwy............
(PID.TID 0000.0001) //      5 ................................................................yyyyyyyyyyyyyyyyyyyyz.................................zzz+..+yy+................
(PID.TID 0000.0001) //      4 ................................................................................................................................................
(PID.TID 0000.0001) //      3 ................................................................................................................................................
(PID.TID 0000.0001) //      2 ................................................................................................................................................
(PID.TID 0000.0001) //      1 ................................................................................................................................................
(PID.TID 0000.0001) //      0 ................................................................................................................................................
(PID.TID 0000.0001) //     -1 ................................................................................................................................................
(PID.TID 0000.0001) //     -2 ................................................................................................................................................
(PID.TID 0000.0001) //     -3 ................................................................................................................................................
(PID.TID 0000.0001) // =======================================================
(PID.TID 0000.0001) // END OF FIELD                                          =
(PID.TID 0000.0001) // =======================================================
(PID.TID 0000.0001) 
(PID.TID 0000.0001) // =======================================================
(PID.TID 0000.0001) // Field Model Ro_surf (ini_masks_etc)
(PID.TID 0000.0001) // CMIN =          1.000000000000000E+32
(PID.TID 0000.0001) // CMAX =         -1.000000000000000E+32
(PID.TID 0000.0001) // CINT =          0.000000000000000E+00
(PID.TID 0000.0001) // SYMBOLS (CMIN->CMAX): -abcdefghijklmnopqrstuvwxyz+
(PID.TID 0000.0001) //                  0.0: .
(PID.TID 0000.0001) // RANGE I (Lo:Hi:Step):(    -3:   132:     1)
(PID.TID 0000.0001) // RANGE J (Lo:Hi:Step):(    68:    -3:    -1)
(PID.TID 0000.0001) // RANGE K (Lo:Hi:Step):(   1:   1:   1)
(PID.TID 0000.0001) // =======================================================
(PID.TID 0000.0001) // =======================================================
(PID.TID 0000.0001) // END OF FIELD                                          =
(PID.TID 0000.0001) // =======================================================
(PID.TID 0000.0001) 
(PID.TID 0000.0001) // =======================================================
(PID.TID 0000.0001) // Field hFacC at iteration          0
(PID.TID 0000.0001) // CMIN =          1.000000000000000E+00
(PID.TID 0000.0001) // CMAX =          1.000000000000000E+00
(PID.TID 0000.0001) // CINT =          0.000000000000000E+00
(PID.TID 0000.0001) // SYMBOLS (CMIN->CMAX): -abcdefghijklmnopqrstuvwxyz+
(PID.TID 0000.0001) //                  0.0: .
(PID.TID 0000.0001) // RANGE I (Lo:Hi:Step):(    -3:   132:     1)
(PID.TID 0000.0001) // RANGE J (Lo:Hi:Step):(    68:    -3:    -1)
(PID.TID 0000.0001) // RANGE K (Lo:Hi:Step):(   1:   1:   1)
(PID.TID 0000.0001) // =======================================================
(PID.TID 0000.0001) // =======================================================
(PID.TID 0000.0001) // END OF FIELD                                          =
(PID.TID 0000.0001) // =======================================================
(PID.TID 0000.0001) 
(PID.TID 0000.0001) // =======================================================
(PID.TID 0000.0001) // Field hFacW at iteration          0
(PID.TID 0000.0001) // CMIN =          1.000000000000000E+00
(PID.TID 0000.0001) // CMAX =          1.000000000000000E+00
(PID.TID 0000.0001) // CINT =          0.000000000000000E+00
(PID.TID 0000.0001) // SYMBOLS (CMIN->CMAX): -abcdefghijklmnopqrstuvwxyz+
(PID.TID 0000.0001) //                  0.0: .
(PID.TID 0000.0001) // RANGE I (Lo:Hi:Step):(    -3:   132:     1)
(PID.TID 0000.0001) // RANGE J (Lo:Hi:Step):(    68:    -3:    -1)
(PID.TID 0000.0001) // RANGE K (Lo:Hi:Step):(   1:   1:   1)
(PID.TID 0000.0001) // =======================================================
(PID.TID 0000.0001) // =======================================================
(PID.TID 0000.0001) // END OF FIELD                                          =
(PID.TID 0000.0001) // =======================================================
(PID.TID 0000.0001) 
(PID.TID 0000.0001) // =======================================================
(PID.TID 0000.0001) // Field hFacS at iteration          0
(PID.TID 0000.0001) // CMIN =          1.000000000000000E+00
(PID.TID 0000.0001) // CMAX =          1.000000000000000E+00
(PID.TID 0000.0001) // CINT =          0.000000000000000E+00
(PID.TID 0000.0001) // SYMBOLS (CMIN->CMAX): -abcdefghijklmnopqrstuvwxyz+
(PID.TID 0000.0001) //                  0.0: .
(PID.TID 0000.0001) // RANGE I (Lo:Hi:Step):(    -3:   132:     1)
(PID.TID 0000.0001) // RANGE J (Lo:Hi:Step):(    68:    -3:    -1)
(PID.TID 0000.0001) // RANGE K (Lo:Hi:Step):(   1:   1:   1)
(PID.TID 0000.0001) // =======================================================
(PID.TID 0000.0001) // =======================================================
(PID.TID 0000.0001) // END OF FIELD                                          =
(PID.TID 0000.0001) // =======================================================
(PID.TID 0000.0001) 
(PID.TID 0000.0001) 
(PID.TID 0000.0001) // =======================================================
(PID.TID 0000.0001) // Calendar configuration >>> START <<<
(PID.TID 0000.0001) // =======================================================
(PID.TID 0000.0001) 
(PID.TID 0000.0001) modelstart = /* Start time of the model integration [s] */
(PID.TID 0000.0001)                 2.438553600000000E+11
(PID.TID 0000.0001)     ;
(PID.TID 0000.0001) modelend  = /* End time of the model integration [s] */
(PID.TID 0000.0001)                 2.438555328000000E+11
(PID.TID 0000.0001)     ;
(PID.TID 0000.0001) modelstep = /* Time interval for a model forward step [s] */
(PID.TID 0000.0001)                 4.320000000000000E+04
(PID.TID 0000.0001)     ;
(PID.TID 0000.0001) usingGregorianCalendar= /* Calendar Type: Gregorian Calendar */
(PID.TID 0000.0001)                   F
(PID.TID 0000.0001)     ;
(PID.TID 0000.0001) usingJulianCalendar = /* Calendar Type: Julian Calendar */
(PID.TID 0000.0001)                   F
(PID.TID 0000.0001)     ;
(PID.TID 0000.0001) usingModelCalendar  = /* Calendar Type: Model Calendar */
(PID.TID 0000.0001)                   T
(PID.TID 0000.0001)     ;
(PID.TID 0000.0001) modelstartdate YYYYMMDD = /* Model start date YYYY-MM-DD */
(PID.TID 0000.0001)                98320101
(PID.TID 0000.0001)     ;
(PID.TID 0000.0001)   modelstartdate HHMMSS = /* Model start date HH-MM-SS  */
(PID.TID 0000.0001)                       0
(PID.TID 0000.0001)     ;
(PID.TID 0000.0001) modelenddate   YYYYMMDD = /* Model end date YYYY-MM-DD */
(PID.TID 0000.0001)                98320103
(PID.TID 0000.0001)     ;
(PID.TID 0000.0001)   modelenddate   HHMMSS = /* Model end date HH-MM-SS  */
(PID.TID 0000.0001)                       0
(PID.TID 0000.0001)     ;
(PID.TID 0000.0001) intyears = /* Number of calendar years affected by the integration */
(PID.TID 0000.0001)                       1
(PID.TID 0000.0001)     ;
(PID.TID 0000.0001) intmonths= /* Number of calendar months affected by the integration */
(PID.TID 0000.0001)                       1
(PID.TID 0000.0001)     ;
(PID.TID 0000.0001) intdays = /* Number of calendar days affected by the integration */
(PID.TID 0000.0001)                       2
(PID.TID 0000.0001)     ;
(PID.TID 0000.0001) modeliter0 = /* Base timestep number  */
(PID.TID 0000.0001)                 5644800
(PID.TID 0000.0001)     ;
(PID.TID 0000.0001) modeliterend = /* Final timestep number  */
(PID.TID 0000.0001)                 5644804
(PID.TID 0000.0001)     ;
(PID.TID 0000.0001) modelintsteps= /* Number of model timesteps  */
(PID.TID 0000.0001)                       4
(PID.TID 0000.0001)     ;
(PID.TID 0000.0001) 
(PID.TID 0000.0001) // =======================================================
(PID.TID 0000.0001) // Calendar configuration  >>> END <<<
(PID.TID 0000.0001) // =======================================================
(PID.TID 0000.0001) 
(PID.TID 0000.0001) GAD_INIT_FIXED: GAD_OlMinSize=  1  0  1
(PID.TID 0000.0001) 
(PID.TID 0000.0001) // ===================================
(PID.TID 0000.0001) // GAD parameters :
(PID.TID 0000.0001) // ===================================
(PID.TID 0000.0001) tempAdvScheme =   /* Temp. Horiz.Advection scheme selector */
(PID.TID 0000.0001)                       2
(PID.TID 0000.0001)     ;
(PID.TID 0000.0001) tempVertAdvScheme =   /* Temp. Vert. Advection scheme selector */
(PID.TID 0000.0001)                       2
(PID.TID 0000.0001)     ;
(PID.TID 0000.0001) tempMultiDimAdvec =   /* use Muti-Dim Advec method for Temp */
(PID.TID 0000.0001)                   F
(PID.TID 0000.0001)     ;
(PID.TID 0000.0001) tempSOM_Advection = /* use 2nd Order Moment Advection for Temp */
(PID.TID 0000.0001)                   F
(PID.TID 0000.0001)     ;
(PID.TID 0000.0001) AdamsBashforthGt = /* apply Adams-Bashforth extrapolation on Gt */
(PID.TID 0000.0001)                   T
(PID.TID 0000.0001)     ;
(PID.TID 0000.0001) AdamsBashforth_T = /* apply Adams-Bashforth extrapolation on Temp */
(PID.TID 0000.0001)                   F
(PID.TID 0000.0001)     ;
(PID.TID 0000.0001) saltAdvScheme =   /* Salt. Horiz.advection scheme selector */
(PID.TID 0000.0001)                       2
(PID.TID 0000.0001)     ;
(PID.TID 0000.0001) saltVertAdvScheme =   /* Salt. Vert. Advection scheme selector */
(PID.TID 0000.0001)                       2
(PID.TID 0000.0001)     ;
(PID.TID 0000.0001) saltMultiDimAdvec =   /* use Muti-Dim Advec method for Salt */
(PID.TID 0000.0001)                   F
(PID.TID 0000.0001)     ;
(PID.TID 0000.0001) saltSOM_Advection = /* use 2nd Order Moment Advection for Salt */
(PID.TID 0000.0001)                   F
(PID.TID 0000.0001)     ;
(PID.TID 0000.0001) AdamsBashforthGs = /* apply Adams-Bashforth extrapolation on Gs */
(PID.TID 0000.0001)                   T
(PID.TID 0000.0001)     ;
(PID.TID 0000.0001) AdamsBashforth_S = /* apply Adams-Bashforth extrapolation on Salt */
(PID.TID 0000.0001)                   F
(PID.TID 0000.0001)     ;
(PID.TID 0000.0001) // ===================================
(PID.TID 0000.0001) 
(PID.TID 0000.0001) // =======================================================
(PID.TID 0000.0001) // External forcing (EXF) configuration >>> START <<<
(PID.TID 0000.0001) // =======================================================
(PID.TID 0000.0001) 
(PID.TID 0000.0001)  EXF general parameters:
(PID.TID 0000.0001) 
(PID.TID 0000.0001) exf_iprec = /* exf file precision */
(PID.TID 0000.0001)                      32
(PID.TID 0000.0001)     ;
(PID.TID 0000.0001) useExfYearlyFields = /* add extension _YEAR to input file names */
(PID.TID 0000.0001)                   T
(PID.TID 0000.0001)     ;
(PID.TID 0000.0001) twoDigitYear = /* use 2-digit year extension */
(PID.TID 0000.0001)                   T
(PID.TID 0000.0001)     ;
(PID.TID 0000.0001) exf_verbose = /* print more messages to STDOUT */
(PID.TID 0000.0001)                   F
(PID.TID 0000.0001)     ;
(PID.TID 0000.0001) useExfCheckRange = /* check for fields range */
(PID.TID 0000.0001)                   F
(PID.TID 0000.0001)     ;
(PID.TID 0000.0001) exf_monFreq = /* EXF monitor frequency [ s ] */
(PID.TID 0000.0001)                 4.320000000000000E+04
(PID.TID 0000.0001)     ;
(PID.TID 0000.0001) repeatPeriod = /* period for cycling forcing dataset [ s ] */
(PID.TID 0000.0001)                 0.000000000000000E+00
(PID.TID 0000.0001)     ;
(PID.TID 0000.0001) climTempFreeze= /* Minimum climatological temperature [deg.C] */
(PID.TID 0000.0001)                -1.900000000000000E+00
(PID.TID 0000.0001)     ;
(PID.TID 0000.0001) windStressMax = /* Maximum absolute windstress [ Pa ] */
(PID.TID 0000.0001)                 2.000000000000000E+00
(PID.TID 0000.0001)     ;
(PID.TID 0000.0001) stressIsOnCgrid = /* set u,v_stress on Arakawa C-grid */
(PID.TID 0000.0001)                   F
(PID.TID 0000.0001)     ;
(PID.TID 0000.0001) cen2kel = /* conversion of deg. Centigrade to Kelvin [K] */
(PID.TID 0000.0001)                 2.731500000000000E+02
(PID.TID 0000.0001)     ;
(PID.TID 0000.0001) gravity_mks= /* gravitational acceleration [m/s^2] */
(PID.TID 0000.0001)                 9.810000000000000E+00
(PID.TID 0000.0001)     ;
(PID.TID 0000.0001) atmrho =  /* mean atmospheric density [kg/m^3] */
(PID.TID 0000.0001)                 1.200000000000000E+00
(PID.TID 0000.0001)     ;
(PID.TID 0000.0001) atmcp =  /* mean atmospheric specific heat [J/kg/K] */
(PID.TID 0000.0001)                 1.005000000000000E+03
(PID.TID 0000.0001)     ;
(PID.TID 0000.0001) flamb =  /* latent heat of evaporation [J/kg] */
(PID.TID 0000.0001)                 2.500000000000000E+06
(PID.TID 0000.0001)     ;
(PID.TID 0000.0001) flami =  /* latent heat of pure-ice melting [J/kg] */
(PID.TID 0000.0001)                 3.340000000000000E+05
(PID.TID 0000.0001)     ;
(PID.TID 0000.0001) cvapor_fac = /* const. for Saturation calculation [?] */
(PID.TID 0000.0001)                 6.403800000000000E+05
(PID.TID 0000.0001)     ;
(PID.TID 0000.0001) cvapor_exp = /* const. for Saturation calculation [?] */
(PID.TID 0000.0001)                 5.107400000000000E+03
(PID.TID 0000.0001)     ;
(PID.TID 0000.0001) cvapor_fac_ice= /* const. for Saturation calculation [?] */
(PID.TID 0000.0001)                 1.163780000000000E+07
(PID.TID 0000.0001)     ;
(PID.TID 0000.0001) cvapor_exp_ice= /* const. for Saturation calculation [?] */
(PID.TID 0000.0001)                 5.897800000000000E+03
(PID.TID 0000.0001)     ;
(PID.TID 0000.0001) humid_fac = /* humidity coef. in virtual temp. [(kg/kg)^-1] */
(PID.TID 0000.0001)                 6.060000000000000E-01
(PID.TID 0000.0001)     ;
(PID.TID 0000.0001) gamma_blk = /* adiabatic lapse rate [?] */
(PID.TID 0000.0001)                 1.000000000000000E-02
(PID.TID 0000.0001)     ;
(PID.TID 0000.0001) saltsat = /* reduction of Qsat over salty water [-] */
(PID.TID 0000.0001)                 9.800000000000000E-01
(PID.TID 0000.0001)     ;
(PID.TID 0000.0001) noNegativeEvap = /* prevent negative Evaporation */
(PID.TID 0000.0001)                   F
(PID.TID 0000.0001)     ;
(PID.TID 0000.0001) sstExtrapol = /* extrapolation coeff from lev. 1 & 2 to surf [-] */
(PID.TID 0000.0001)                 0.000000000000000E+00
(PID.TID 0000.0001)     ;
(PID.TID 0000.0001) cDrag_1 = /* coef used in drag calculation [?] */
(PID.TID 0000.0001)                 2.700000000000000E-03
(PID.TID 0000.0001)     ;
(PID.TID 0000.0001) cDrag_2 = /* coef used in drag calculation [?] */
(PID.TID 0000.0001)                 1.420000000000000E-04
(PID.TID 0000.0001)     ;
(PID.TID 0000.0001) cDrag_3 = /* coef used in drag calculation [?] */
(PID.TID 0000.0001)                 7.640000000000000E-05
(PID.TID 0000.0001)     ;
(PID.TID 0000.0001) cStanton_1 = /* coef used in Stanton number calculation [?] */
(PID.TID 0000.0001)                 3.270000000000000E-02
(PID.TID 0000.0001)     ;
(PID.TID 0000.0001) cStanton_2 = /* coef used in Stanton number calculation [?] */
(PID.TID 0000.0001)                 1.800000000000000E-02
(PID.TID 0000.0001)     ;
(PID.TID 0000.0001) cDalton = /* coef used in Dalton number calculation [?] */
(PID.TID 0000.0001)                 3.460000000000000E-02
(PID.TID 0000.0001)     ;
(PID.TID 0000.0001) exf_scal_BulkCdn= /* Drag coefficient scaling factor [-] */
(PID.TID 0000.0001)                 1.000000000000000E+00
(PID.TID 0000.0001)     ;
(PID.TID 0000.0001) zolmin = /* minimum stability parameter [?] */
(PID.TID 0000.0001)                -1.000000000000000E+02
(PID.TID 0000.0001)     ;
(PID.TID 0000.0001) psim_fac = /* coef used in turbulent fluxes calculation [-] */
(PID.TID 0000.0001)                 5.000000000000000E+00
(PID.TID 0000.0001)     ;
(PID.TID 0000.0001) zref =  /* reference height [ m ] */
(PID.TID 0000.0001)                 1.000000000000000E+01
(PID.TID 0000.0001)     ;
(PID.TID 0000.0001) hu =  /* height of mean wind [ m ] */
(PID.TID 0000.0001)                 1.000000000000000E+01
(PID.TID 0000.0001)     ;
(PID.TID 0000.0001) ht =  /* height of mean temperature [ m ] */
(PID.TID 0000.0001)                 2.000000000000000E+00
(PID.TID 0000.0001)     ;
(PID.TID 0000.0001) hq =  /* height of mean spec.humidity [ m ] */
(PID.TID 0000.0001)                 2.000000000000000E+00
(PID.TID 0000.0001)     ;
(PID.TID 0000.0001) uMin = /* minimum wind speed [m/s] */
(PID.TID 0000.0001)                 5.000000000000000E-01
(PID.TID 0000.0001)     ;
(PID.TID 0000.0001) useStabilityFct_overIce= /* transfert Coeffs over sea-ice depend on stability */
(PID.TID 0000.0001)                   F
(PID.TID 0000.0001)     ;
(PID.TID 0000.0001) exf_iceCd = /* drag coefficient over sea-ice (fixed) [-] */
(PID.TID 0000.0001)                 1.630000000000000E-03
(PID.TID 0000.0001)     ;
(PID.TID 0000.0001) exf_iceCe = /* transfert coeff. over sea-ice, for Evap (fixed) [-] */
(PID.TID 0000.0001)                 1.630000000000000E-03
(PID.TID 0000.0001)     ;
(PID.TID 0000.0001) exf_iceCh = /* transfert coeff. over sea-ice, Sens.Heat.(fixed)[-] */
(PID.TID 0000.0001)                 1.630000000000000E-03
(PID.TID 0000.0001)     ;
(PID.TID 0000.0001) exf_albedo =  /* Sea-water albedo [-] */
(PID.TID 0000.0001)                 1.500000000000000E-01
(PID.TID 0000.0001)     ;
(PID.TID 0000.0001) useExfZenAlbedo = /* Sea-water albedo varies with zenith angle */
(PID.TID 0000.0001)                   F
(PID.TID 0000.0001)     ;
(PID.TID 0000.0001) select_ZenAlbedo = /* Sea-water albedo computation method */
(PID.TID 0000.0001)                       0
(PID.TID 0000.0001)     ;
(PID.TID 0000.0001) useExfZenIncoming = /* compute incoming solar radiation */
(PID.TID 0000.0001)                   F
(PID.TID 0000.0001)     ;
(PID.TID 0000.0001) ocean_emissivity = /* longwave ocean-surface emissivity [-] */
(PID.TID 0000.0001)                 9.700176366843034E-01
(PID.TID 0000.0001)     ;
(PID.TID 0000.0001) ice_emissivity = /* longwave seaice emissivity [-] */
(PID.TID 0000.0001)                 9.500000000000000E-01
(PID.TID 0000.0001)     ;
(PID.TID 0000.0001) snow_emissivity = /* longwave snow  emissivity [-] */
(PID.TID 0000.0001)                 9.500000000000000E-01
(PID.TID 0000.0001)     ;
(PID.TID 0000.0001) 
(PID.TID 0000.0001)  EXF main CPP flags:
(PID.TID 0000.0001) 
(PID.TID 0000.0001) // USE_EXF_INTERPOLATION:          NOT defined
(PID.TID 0000.0001) // ALLOW_ATM_TEMP:                     defined
(PID.TID 0000.0001) // ALLOW_ATM_WIND (useAtmWind):        defined
(PID.TID 0000.0001) // ALLOW_DOWNWARD_RADIATION:           defined
(PID.TID 0000.0001) // ALLOW_BULKFORMULAE:                 defined
(PID.TID 0000.0001) 
(PID.TID 0000.0001)    Net shortwave flux forcing starts at                0.
(PID.TID 0000.0001)    Net shortwave flux forcing period is                0.
(PID.TID 0000.0001)    Net shortwave flux forcing is read from file:
(PID.TID 0000.0001)    >>    <<
(PID.TID 0000.0001) 
(PID.TID 0000.0001)    Zonal wind forcing starts at                          0.
(PID.TID 0000.0001)    Zonal wind forcing period is                          0.
(PID.TID 0000.0001)    Zonal wind forcing is read from file:
(PID.TID 0000.0001)    >>    <<
(PID.TID 0000.0001) 
(PID.TID 0000.0001)    Meridional wind forcing starts at                     0.
(PID.TID 0000.0001)    Meridional wind forcing period is                     0.
(PID.TID 0000.0001)    Meridional wind forcing is read from file:
(PID.TID 0000.0001)    >>    <<
(PID.TID 0000.0001) 
(PID.TID 0000.0001)    Atmospheric temperature starts at                     0.
(PID.TID 0000.0001)    Atmospheric temperature period is                     0.
(PID.TID 0000.0001)    Atmospheric temperature is read from file:
(PID.TID 0000.0001)    >>    <<
(PID.TID 0000.0001) 
(PID.TID 0000.0001)    Atmospheric specific humidity starts at               0.
(PID.TID 0000.0001)    Atmospheric specific humidity period is               0.
(PID.TID 0000.0001)    Atmospheric specific humidity is read from file:
(PID.TID 0000.0001)    >>    <<
(PID.TID 0000.0001) 
(PID.TID 0000.0001)    Net longwave flux forcing starts at                 0.
(PID.TID 0000.0001)    Net longwave flux forcing period is                 0.
(PID.TID 0000.0001)    Net longwave flux forcing is read from file:
(PID.TID 0000.0001)    >>    <<
(PID.TID 0000.0001) 
(PID.TID 0000.0001)    Precipitation data set starts at                      0.
(PID.TID 0000.0001)    Precipitation data period is                          0.
(PID.TID 0000.0001)    Precipitation data is read from file:
(PID.TID 0000.0001)    >>    <<
(PID.TID 0000.0001) 
(PID.TID 0000.0001) // EXF_READ_EVAP:                  NOT defined
(PID.TID 0000.0001) 
(PID.TID 0000.0001) // ALLOW_RUNOFF:                       defined
(PID.TID 0000.0001)    Runoff starts at               0.
(PID.TID 0000.0001)    Runoff period is               0.
(PID.TID 0000.0001)    Runoff is read from file:
(PID.TID 0000.0001)    >>    <<
(PID.TID 0000.0001) 
(PID.TID 0000.0001)    Downward shortwave flux forcing starts at                0.
(PID.TID 0000.0001)    Downward shortwave flux forcing period is                0.
(PID.TID 0000.0001)    Downward shortwave flux forcing is read from file:
(PID.TID 0000.0001)    >>    <<
(PID.TID 0000.0001) 
(PID.TID 0000.0001)    Downward longwave flux forcing starts at                 0.
(PID.TID 0000.0001)    Downward longwave flux forcing period is                 0.
(PID.TID 0000.0001)    Downward longwave flux forcing is read from file:
(PID.TID 0000.0001)    >>    <<
(PID.TID 0000.0001) 
(PID.TID 0000.0001)    Atmospheric pressure forcing starts at                0.
(PID.TID 0000.0001)    Atmospheric pressure forcing period is                0.
(PID.TID 0000.0001)    Atmospheric pressureforcing is read from file:
(PID.TID 0000.0001)    >>    <<
(PID.TID 0000.0001) 
(PID.TID 0000.0001) // =======================================================
(PID.TID 0000.0001) // External forcing (EXF) climatology configuration :
(PID.TID 0000.0001) // =======================================================
(PID.TID 0000.0001) 
(PID.TID 0000.0001) // ALLOW_CLIMSST_RELAXATION:       NOT defined
(PID.TID 0000.0001) // ALLOW_CLIMSSS_RELAXATION:       NOT defined
(PID.TID 0000.0001) 
(PID.TID 0000.0001) // =======================================================
(PID.TID 0000.0001) // External forcing (EXF) configuration  >>> END <<<
(PID.TID 0000.0001) // =======================================================
(PID.TID 0000.0001) 
(PID.TID 0000.0001) QQ random port_rand               56   0.3052905000000000
(PID.TID 0000.0001)  DARWIN_INIT_FIXED: opening data.traits
(PID.TID 0000.0001)  OPEN_COPY_DATA_FILE: opening file data.traits
(PID.TID 0000.0001) // =======================================================
(PID.TID 0000.0001) // Parameter file "data.traits"
(PID.TID 0000.0001) // =======================================================
(PID.TID 0000.0001) > &DARWIN_TRAITS
(PID.TID 0000.0001) > chl2cmin(:)= 25*0.0,
(PID.TID 0000.0001) > chl2cmax(:)= 25*1e10,
(PID.TID 0000.0001) ># no P or Si limitations
(PID.TID 0000.0001) > ksatPO4(:)= 25*0.0,
(PID.TID 0000.0001) > ksatSiO2(:)= 25*0.0,
(PID.TID 0000.0001) > /
(PID.TID 0000.0001) 
(PID.TID 0000.0001)  ===================================
(PID.TID 0000.0001) ------------------------------------------------------------
(PID.TID 0000.0001) DIAGNOSTICS_SET_LEVELS: done
(PID.TID 0000.0001)  Total Nb of available Diagnostics: ndiagt=  3328
(PID.TID 0000.0001)  write list of available Diagnostics to file: available_diagnostics.log
(PID.TID 0000.0001) SETDIAG: Allocate 15 x  1 Levels for Diagnostic #   224 TRAC01
(PID.TID 0000.0001) SETDIAG: Allocate 15 x  1 Levels for Diagnostic #   236 TRAC02
(PID.TID 0000.0001) SETDIAG: Allocate 15 x  1 Levels for Diagnostic #   248 TRAC03
(PID.TID 0000.0001) SETDIAG: Allocate 15 x  1 Levels for Diagnostic #   260 TRAC04
(PID.TID 0000.0001) SETDIAG: Allocate 15 x  1 Levels for Diagnostic #   272 TRAC05
(PID.TID 0000.0001) SETDIAG: Allocate 15 x  1 Levels for Diagnostic #   284 TRAC06
(PID.TID 0000.0001) SETDIAG: Allocate 15 x  1 Levels for Diagnostic #   296 TRAC07
(PID.TID 0000.0001) SETDIAG: Allocate 15 x  1 Levels for Diagnostic #   308 TRAC08
(PID.TID 0000.0001) SETDIAG: Allocate 15 x  1 Levels for Diagnostic #   320 TRAC09
(PID.TID 0000.0001) SETDIAG: Allocate 15 x  1 Levels for Diagnostic #   332 TRAC10
(PID.TID 0000.0001) SETDIAG: Allocate 15 x  1 Levels for Diagnostic #   344 TRAC11
(PID.TID 0000.0001) SETDIAG: Allocate 15 x  1 Levels for Diagnostic #   356 TRAC12
(PID.TID 0000.0001) SETDIAG: Allocate 15 x  1 Levels for Diagnostic #   368 TRAC13
(PID.TID 0000.0001) SETDIAG: Allocate 15 x  1 Levels for Diagnostic #   380 TRAC14
(PID.TID 0000.0001) SETDIAG: Allocate 15 x  1 Levels for Diagnostic #   392 TRAC15
(PID.TID 0000.0001) SETDIAG: Allocate 15 x  1 Levels for Diagnostic #   404 TRAC16
(PID.TID 0000.0001) SETDIAG: Allocate 15 x  1 Levels for Diagnostic #   416 TRAC17
(PID.TID 0000.0001) SETDIAG: Allocate 15 x  1 Levels for Diagnostic #   428 TRAC18
(PID.TID 0000.0001) SETDIAG: Allocate 15 x  1 Levels for Diagnostic #   440 TRAC19
(PID.TID 0000.0001) SETDIAG: Allocate 15 x  1 Levels for Diagnostic #   452 TRAC20
(PID.TID 0000.0001) SETDIAG: Allocate 15 x  1 Levels for Diagnostic #   464 TRAC21
(PID.TID 0000.0001) SETDIAG: Allocate 15 x  1 Levels for Diagnostic #   476 TRAC22
(PID.TID 0000.0001) SETDIAG: Allocate 15 x  1 Levels for Diagnostic #   488 TRAC23
(PID.TID 0000.0001) SETDIAG: Allocate 15 x  1 Levels for Diagnostic #   500 TRAC24
(PID.TID 0000.0001) SETDIAG: Allocate 15 x  1 Levels for Diagnostic #   512 TRAC25
(PID.TID 0000.0001) SETDIAG: Allocate 15 x  1 Levels for Diagnostic #   524 TRAC26
(PID.TID 0000.0001) SETDIAG: Allocate 15 x  1 Levels for Diagnostic #   536 TRAC27
(PID.TID 0000.0001) SETDIAG: Allocate 15 x  1 Levels for Diagnostic #   548 TRAC28
(PID.TID 0000.0001) SETDIAG: Allocate 15 x  1 Levels for Diagnostic #   560 TRAC29
(PID.TID 0000.0001) SETDIAG: Allocate 15 x  1 Levels for Diagnostic #   572 TRAC30
(PID.TID 0000.0001) SETDIAG: Allocate 15 x  1 Levels for Diagnostic #   584 TRAC31
(PID.TID 0000.0001) SETDIAG: Allocate 15 x  1 Levels for Diagnostic #   596 TRAC32
(PID.TID 0000.0001) SETDIAG: Allocate 15 x  1 Levels for Diagnostic #   608 TRAC33
(PID.TID 0000.0001) SETDIAG: Allocate 15 x  1 Levels for Diagnostic #   620 TRAC34
(PID.TID 0000.0001) SETDIAG: Allocate 15 x  1 Levels for Diagnostic #   632 TRAC35
(PID.TID 0000.0001) SETDIAG: Allocate 15 x  1 Levels for Diagnostic #   644 TRAC36
(PID.TID 0000.0001) SETDIAG: Allocate 15 x  1 Levels for Diagnostic #   656 TRAC37
(PID.TID 0000.0001) SETDIAG: Allocate 15 x  1 Levels for Diagnostic #   668 TRAC38
(PID.TID 0000.0001) SETDIAG: Allocate 15 x  1 Levels for Diagnostic #   680 TRAC39
(PID.TID 0000.0001) SETDIAG: Allocate 15 x  1 Levels for Diagnostic #   692 TRAC40
(PID.TID 0000.0001) SETDIAG: Allocate 15 x  1 Levels for Diagnostic #   704 TRAC41
(PID.TID 0000.0001) SETDIAG: Allocate 15 x  1 Levels for Diagnostic #   716 TRAC42
(PID.TID 0000.0001) SETDIAG: Allocate 15 x  1 Levels for Diagnostic #   728 TRAC43
(PID.TID 0000.0001) SETDIAG: Allocate 15 x  1 Levels for Diagnostic #   740 TRAC44
(PID.TID 0000.0001) SETDIAG: Allocate 15 x  1 Levels for Diagnostic #   752 TRAC45
(PID.TID 0000.0001) SETDIAG: Allocate 15 x  1 Levels for Diagnostic #   764 TRAC46
(PID.TID 0000.0001) SETDIAG: Allocate 15 x  1 Levels for Diagnostic #   776 TRAC47
(PID.TID 0000.0001) SETDIAG: Allocate 15 x  1 Levels for Diagnostic #   788 TRAC48
(PID.TID 0000.0001) SETDIAG: Allocate 15 x  1 Levels for Diagnostic #   800 TRAC49
(PID.TID 0000.0001) SETDIAG: Allocate 15 x  1 Levels for Diagnostic #   812 TRAC50
(PID.TID 0000.0001) SETDIAG: Allocate 15 x  1 Levels for Diagnostic #   824 TRAC51
(PID.TID 0000.0001) SETDIAG: Allocate 15 x  1 Levels for Diagnostic #   836 TRAC52
(PID.TID 0000.0001) SETDIAG: Allocate 15 x  1 Levels for Diagnostic #   848 TRAC53
(PID.TID 0000.0001) SETDIAG: Allocate 15 x  1 Levels for Diagnostic #   860 TRAC54
(PID.TID 0000.0001) SETDIAG: Allocate 15 x  1 Levels for Diagnostic #   872 TRAC55
(PID.TID 0000.0001) SETDIAG: Allocate 15 x  1 Levels for Diagnostic #   884 TRAC56
(PID.TID 0000.0001) SETDIAG: Allocate 15 x  1 Levels for Diagnostic #   896 TRAC57
(PID.TID 0000.0001) SETDIAG: Allocate 15 x  1 Levels for Diagnostic #   908 TRAC58
(PID.TID 0000.0001) SETDIAG: Allocate 15 x  1 Levels for Diagnostic #   920 TRAC59
(PID.TID 0000.0001) SETDIAG: Allocate 15 x  1 Levels for Diagnostic #   932 TRAC60
(PID.TID 0000.0001) SETDIAG: Allocate 15 x  1 Levels for Diagnostic #   944 TRAC61
(PID.TID 0000.0001) SETDIAG: Allocate 15 x  1 Levels for Diagnostic #   956 TRAC62
(PID.TID 0000.0001) SETDIAG: Allocate 15 x  1 Levels for Diagnostic #   968 TRAC63
(PID.TID 0000.0001) SETDIAG: Allocate 15 x  1 Levels for Diagnostic #   980 TRAC64
(PID.TID 0000.0001) SETDIAG: Allocate 15 x  1 Levels for Diagnostic #   992 TRAC65
(PID.TID 0000.0001) SETDIAG: Allocate 15 x  1 Levels for Diagnostic #  1004 TRAC66
(PID.TID 0000.0001) SETDIAG: Allocate 15 x  1 Levels for Diagnostic #  1016 TRAC67
(PID.TID 0000.0001) SETDIAG: Allocate 15 x  1 Levels for Diagnostic #  1028 TRAC68
(PID.TID 0000.0001) SETDIAG: Allocate 15 x  1 Levels for Diagnostic #  1040 TRAC69
(PID.TID 0000.0001) SETDIAG: Allocate 15 x  1 Levels for Diagnostic #  1052 TRAC70
(PID.TID 0000.0001) SETDIAG: Allocate 15 x  1 Levels for Diagnostic #  1064 TRAC71
(PID.TID 0000.0001) SETDIAG: Allocate 15 x  1 Levels for Diagnostic #  1076 TRAC72
(PID.TID 0000.0001) SETDIAG: Allocate 15 x  1 Levels for Diagnostic #  1088 TRAC73
(PID.TID 0000.0001) SETDIAG: Allocate 15 x  1 Levels for Diagnostic #  1100 TRAC74
(PID.TID 0000.0001) SETDIAG: Allocate 15 x  1 Levels for Diagnostic #  1112 TRAC75
(PID.TID 0000.0001) SETDIAG: Allocate 15 x  1 Levels for Diagnostic #  1124 TRAC76
(PID.TID 0000.0001) SETDIAG: Allocate 15 x  1 Levels for Diagnostic #  1136 TRAC77
(PID.TID 0000.0001) SETDIAG: Allocate 15 x  1 Levels for Diagnostic #  1148 TRAC78
(PID.TID 0000.0001) SETDIAG: Allocate 15 x  1 Levels for Diagnostic #  1160 TRAC79
(PID.TID 0000.0001) SETDIAG: Allocate 15 x  1 Levels for Diagnostic #  1172 TRAC80
(PID.TID 0000.0001) SETDIAG: Allocate 15 x  1 Levels for Diagnostic #  1184 TRAC81
(PID.TID 0000.0001) SETDIAG: Allocate 15 x  1 Levels for Diagnostic #  1196 TRAC82
(PID.TID 0000.0001) SETDIAG: Allocate 15 x  1 Levels for Diagnostic #  1208 TRAC83
(PID.TID 0000.0001) SETDIAG: Allocate 15 x  1 Levels for Diagnostic #  1220 TRAC84
(PID.TID 0000.0001) SETDIAG: Allocate 15 x  1 Levels for Diagnostic #  1232 TRAC85
(PID.TID 0000.0001) SETDIAG: Allocate 15 x  1 Levels for Diagnostic #  1244 TRAC86
(PID.TID 0000.0001) SETDIAG: Allocate 15 x  1 Levels for Diagnostic #  1256 TRAC87
(PID.TID 0000.0001) SETDIAG: Allocate 15 x  1 Levels for Diagnostic #  1268 TRAC88
(PID.TID 0000.0001) SETDIAG: Allocate 15 x  1 Levels for Diagnostic #  1280 TRAC89
(PID.TID 0000.0001) SETDIAG: Allocate 15 x  1 Levels for Diagnostic #  1292 TRAC90
(PID.TID 0000.0001) SETDIAG: Allocate 15 x  1 Levels for Diagnostic #  1304 TRAC91
(PID.TID 0000.0001) SETDIAG: Allocate 15 x  1 Levels for Diagnostic #  1316 TRAC92
(PID.TID 0000.0001) SETDIAG: Allocate 15 x  1 Levels for Diagnostic #  1328 TRAC93
(PID.TID 0000.0001) SETDIAG: Allocate 15 x  1 Levels for Diagnostic #  1340 TRAC94
(PID.TID 0000.0001) SETDIAG: Allocate 15 x  1 Levels for Diagnostic #  1352 TRAC95
(PID.TID 0000.0001) SETDIAG: Allocate 15 x  1 Levels for Diagnostic #  1364 TRAC96
(PID.TID 0000.0001) SETDIAG: Allocate 15 x  1 Levels for Diagnostic #  1376 TRAC97
(PID.TID 0000.0001) SETDIAG: Allocate 15 x  1 Levels for Diagnostic #  1388 TRAC98
(PID.TID 0000.0001) SETDIAG: Allocate 15 x  1 Levels for Diagnostic #  1400 TRAC99
(PID.TID 0000.0001) SETDIAG: Allocate 15 x  1 Levels for Diagnostic #  1412 TRAC0a
(PID.TID 0000.0001) SETDIAG: Allocate 15 x  1 Levels for Diagnostic #  1424 TRAC0b
(PID.TID 0000.0001) SETDIAG: Allocate 15 x  1 Levels for Diagnostic #  1436 TRAC0c
(PID.TID 0000.0001) SETDIAG: Allocate 15 x  1 Levels for Diagnostic #  1448 TRAC0d
(PID.TID 0000.0001) SETDIAG: Allocate 15 x  1 Levels for Diagnostic #  1460 TRAC0e
(PID.TID 0000.0001) SETDIAG: Allocate 15 x  1 Levels for Diagnostic #  1472 TRAC0f
(PID.TID 0000.0001) SETDIAG: Allocate 15 x  1 Levels for Diagnostic #  1484 TRAC0g
(PID.TID 0000.0001) SETDIAG: Allocate 15 x  1 Levels for Diagnostic #  1496 TRAC0h
(PID.TID 0000.0001) SETDIAG: Allocate 15 x  1 Levels for Diagnostic #  1508 TRAC0i
(PID.TID 0000.0001) SETDIAG: Allocate 15 x  1 Levels for Diagnostic #  1520 TRAC0j
(PID.TID 0000.0001) SETDIAG: Allocate 15 x  1 Levels for Diagnostic #  1532 TRAC0k
(PID.TID 0000.0001) SETDIAG: Allocate 15 x  1 Levels for Diagnostic #  1544 TRAC0l
(PID.TID 0000.0001) SETDIAG: Allocate 15 x  1 Levels for Diagnostic #  1556 TRAC0m
(PID.TID 0000.0001) SETDIAG: Allocate 15 x  1 Levels for Diagnostic #  1568 TRAC0n
(PID.TID 0000.0001) SETDIAG: Allocate 15 x  1 Levels for Diagnostic #  1580 TRAC0o
(PID.TID 0000.0001) SETDIAG: Allocate 15 x  1 Levels for Diagnostic #  1592 TRAC0p
(PID.TID 0000.0001) SETDIAG: Allocate 15 x  1 Levels for Diagnostic #  1604 TRAC0q
(PID.TID 0000.0001) SETDIAG: Allocate 15 x  1 Levels for Diagnostic #  1616 TRAC0r
(PID.TID 0000.0001) SETDIAG: Allocate 15 x  1 Levels for Diagnostic #  1628 TRAC0s
(PID.TID 0000.0001) SETDIAG: Allocate 15 x  1 Levels for Diagnostic #  1640 TRAC0t
(PID.TID 0000.0001) SETDIAG: Allocate 15 x  1 Levels for Diagnostic #  1652 TRAC0u
(PID.TID 0000.0001) SETDIAG: Allocate 15 x  1 Levels for Diagnostic #  1664 TRAC0v
(PID.TID 0000.0001) SETDIAG: Allocate 15 x  1 Levels for Diagnostic #  1676 TRAC0w
(PID.TID 0000.0001) SETDIAG: Allocate 15 x  1 Levels for Diagnostic #  1688 TRAC0x
(PID.TID 0000.0001) SETDIAG: Allocate 15 x  1 Levels for Diagnostic #  1700 TRAC0y
(PID.TID 0000.0001) SETDIAG: Allocate 15 x  1 Levels for Diagnostic #  1712 TRAC0z
(PID.TID 0000.0001) SETDIAG: Allocate 15 x  1 Levels for Diagnostic #  1724 TRAC0A
(PID.TID 0000.0001) SETDIAG: Allocate 15 x  1 Levels for Diagnostic #  1736 TRAC0B
(PID.TID 0000.0001) SETDIAG: Allocate 15 x  1 Levels for Diagnostic #  1748 TRAC0C
(PID.TID 0000.0001) SETDIAG: Allocate 15 x  1 Levels for Diagnostic #  1760 TRAC0D
(PID.TID 0000.0001) SETDIAG: Allocate 15 x  1 Levels for Diagnostic #  1772 TRAC0E
(PID.TID 0000.0001) SETDIAG: Allocate 15 x  1 Levels for Diagnostic #  1784 TRAC0F
(PID.TID 0000.0001) SETDIAG: Allocate 15 x  1 Levels for Diagnostic #  1796 TRAC0G
(PID.TID 0000.0001) SETDIAG: Allocate 15 x  1 Levels for Diagnostic #  1808 TRAC0H
(PID.TID 0000.0001) SETDIAG: Allocate 15 x  1 Levels for Diagnostic #  1820 TRAC0I
(PID.TID 0000.0001) SETDIAG: Allocate 15 x  1 Levels for Diagnostic #  1832 TRAC0J
(PID.TID 0000.0001) SETDIAG: Allocate 15 x  1 Levels for Diagnostic #  1844 TRAC0K
(PID.TID 0000.0001) SETDIAG: Allocate 15 x  1 Levels for Diagnostic #  1856 TRAC0L
(PID.TID 0000.0001) SETDIAG: Allocate 15 x  1 Levels for Diagnostic #  1868 TRAC0M
(PID.TID 0000.0001) SETDIAG: Allocate 15 x  1 Levels for Diagnostic #  1880 TRAC0N
(PID.TID 0000.0001) SETDIAG: Allocate 15 x  1 Levels for Diagnostic #  1892 TRAC0O
(PID.TID 0000.0001) SETDIAG: Allocate 15 x  1 Levels for Diagnostic #  1904 TRAC0P
(PID.TID 0000.0001) SETDIAG: Allocate 15 x  1 Levels for Diagnostic #  1916 TRAC0Q
(PID.TID 0000.0001) SETDIAG: Allocate 15 x  1 Levels for Diagnostic #  1928 TRAC0R
(PID.TID 0000.0001) SETDIAG: Allocate 15 x  1 Levels for Diagnostic #  1940 TRAC0S
(PID.TID 0000.0001) SETDIAG: Allocate 15 x  1 Levels for Diagnostic #  1952 TRAC0T
(PID.TID 0000.0001) SETDIAG: Allocate 15 x  1 Levels for Diagnostic #  1964 TRAC0U
(PID.TID 0000.0001) SETDIAG: Allocate 15 x  1 Levels for Diagnostic #  1976 TRAC0V
(PID.TID 0000.0001) SETDIAG: Allocate 15 x  1 Levels for Diagnostic #  1988 TRAC0W
(PID.TID 0000.0001) SETDIAG: Allocate 15 x  1 Levels for Diagnostic #  2000 TRAC0X
(PID.TID 0000.0001) SETDIAG: Allocate 15 x  1 Levels for Diagnostic #  2012 TRAC0Y
(PID.TID 0000.0001) SETDIAG: Allocate 15 x  1 Levels for Diagnostic #  2024 TRAC0Z
(PID.TID 0000.0001) SETDIAG: Allocate 15 x  1 Levels for Diagnostic #  2036 TRAC1a
(PID.TID 0000.0001) SETDIAG: Allocate 15 x  1 Levels for Diagnostic #  2048 TRAC1b
(PID.TID 0000.0001) SETDIAG: Allocate 15 x  1 Levels for Diagnostic #  2060 TRAC1c
(PID.TID 0000.0001) SETDIAG: Allocate 15 x  1 Levels for Diagnostic #  2072 TRAC1d
(PID.TID 0000.0001) SETDIAG: Allocate 15 x  1 Levels for Diagnostic #  2084 TRAC1e
(PID.TID 0000.0001) SETDIAG: Allocate 15 x  1 Levels for Diagnostic #  2096 TRAC1f
(PID.TID 0000.0001) SETDIAG: Allocate 15 x  1 Levels for Diagnostic #  2108 TRAC1g
(PID.TID 0000.0001) SETDIAG: Allocate 15 x  1 Levels for Diagnostic #  2120 TRAC1h
(PID.TID 0000.0001) SETDIAG: Allocate 15 x  1 Levels for Diagnostic #  2132 TRAC1i
(PID.TID 0000.0001) SETDIAG: Allocate 15 x  1 Levels for Diagnostic #  2144 TRAC1j
(PID.TID 0000.0001) SETDIAG: Allocate 15 x  1 Levels for Diagnostic #  2156 TRAC1k
(PID.TID 0000.0001) SETDIAG: Allocate 15 x  1 Levels for Diagnostic #  2168 TRAC1l
(PID.TID 0000.0001) SETDIAG: Allocate 15 x  1 Levels for Diagnostic #  2180 TRAC1m
(PID.TID 0000.0001) SETDIAG: Allocate 15 x  1 Levels for Diagnostic #  2192 TRAC1n
(PID.TID 0000.0001) SETDIAG: Allocate 15 x  1 Levels for Diagnostic #  2204 TRAC1o
(PID.TID 0000.0001) SETDIAG: Allocate 15 x  1 Levels for Diagnostic #  2216 TRAC1p
(PID.TID 0000.0001) SETDIAG: Allocate 15 x  1 Levels for Diagnostic #  2228 TRAC1q
(PID.TID 0000.0001) SETDIAG: Allocate 15 x  1 Levels for Diagnostic #  2240 TRAC1r
(PID.TID 0000.0001) SETDIAG: Allocate 15 x  1 Levels for Diagnostic #  2252 TRAC1s
(PID.TID 0000.0001) SETDIAG: Allocate 15 x  1 Levels for Diagnostic #  2264 TRAC1t
(PID.TID 0000.0001) SETDIAG: Allocate 15 x  1 Levels for Diagnostic #  2276 TRAC1u
(PID.TID 0000.0001) SETDIAG: Allocate 15 x  1 Levels for Diagnostic #  2288 TRAC1v
(PID.TID 0000.0001) SETDIAG: Allocate 15 x  1 Levels for Diagnostic #  2300 TRAC1w
(PID.TID 0000.0001) SETDIAG: Allocate 15 x  1 Levels for Diagnostic #  2312 TRAC1x
(PID.TID 0000.0001) SETDIAG: Allocate 15 x  1 Levels for Diagnostic #  2324 TRAC1y
(PID.TID 0000.0001) SETDIAG: Allocate 15 x  1 Levels for Diagnostic #  2336 TRAC1z
(PID.TID 0000.0001) SETDIAG: Allocate 15 x  1 Levels for Diagnostic #  2348 TRAC1A
(PID.TID 0000.0001) SETDIAG: Allocate 15 x  1 Levels for Diagnostic #  2360 TRAC1B
(PID.TID 0000.0001) SETDIAG: Allocate 15 x  1 Levels for Diagnostic #  2372 TRAC1C
(PID.TID 0000.0001) SETDIAG: Allocate 15 x  1 Levels for Diagnostic #  2384 TRAC1D
(PID.TID 0000.0001) SETDIAG: Allocate 15 x  1 Levels for Diagnostic #  2396 TRAC1E
(PID.TID 0000.0001) SETDIAG: Allocate 15 x  1 Levels for Diagnostic #  2408 TRAC1F
(PID.TID 0000.0001) SETDIAG: Allocate 15 x  1 Levels for Diagnostic #  2420 TRAC1G
(PID.TID 0000.0001) SETDIAG: Allocate 15 x  1 Levels for Diagnostic #  2432 TRAC1H
(PID.TID 0000.0001) SETDIAG: Allocate 15 x  1 Levels for Diagnostic #  2444 TRAC1I
(PID.TID 0000.0001) SETDIAG: Allocate 15 x  1 Levels for Diagnostic #  2456 TRAC1J
(PID.TID 0000.0001) SETDIAG: Allocate 15 x  1 Levels for Diagnostic #  2468 TRAC1K
(PID.TID 0000.0001) SETDIAG: Allocate 15 x  1 Levels for Diagnostic #  2480 TRAC1L
(PID.TID 0000.0001) SETDIAG: Allocate 15 x  1 Levels for Diagnostic #  2492 TRAC1M
(PID.TID 0000.0001) SETDIAG: Allocate 15 x  1 Levels for Diagnostic #  2504 TRAC1N
(PID.TID 0000.0001) SETDIAG: Allocate 15 x  1 Levels for Diagnostic #  2516 TRAC1O
(PID.TID 0000.0001) SETDIAG: Allocate 15 x  1 Levels for Diagnostic #  2528 TRAC1P
(PID.TID 0000.0001) SETDIAG: Allocate 15 x  1 Levels for Diagnostic #  2540 TRAC1Q
(PID.TID 0000.0001) SETDIAG: Allocate 15 x  1 Levels for Diagnostic #  2552 TRAC1R
(PID.TID 0000.0001) SETDIAG: Allocate 15 x  1 Levels for Diagnostic #  2564 TRAC1S
(PID.TID 0000.0001) SETDIAG: Allocate 15 x  1 Levels for Diagnostic #  2576 TRAC1T
(PID.TID 0000.0001) SETDIAG: Allocate 15 x  1 Levels for Diagnostic #  2588 TRAC1U
(PID.TID 0000.0001) SETDIAG: Allocate 15 x  1 Levels for Diagnostic #  2600 TRAC1V
(PID.TID 0000.0001) SETDIAG: Allocate 15 x  1 Levels for Diagnostic #  2612 TRAC1W
(PID.TID 0000.0001) SETDIAG: Allocate 15 x  1 Levels for Diagnostic #  2624 TRAC1X
(PID.TID 0000.0001) SETDIAG: Allocate 15 x  1 Levels for Diagnostic #  2636 TRAC1Y
(PID.TID 0000.0001) SETDIAG: Allocate 15 x  1 Levels for Diagnostic #  2648 TRAC1Z
(PID.TID 0000.0001) SETDIAG: Allocate 15 x  1 Levels for Diagnostic #  2660 TRAC2a
(PID.TID 0000.0001) SETDIAG: Allocate 15 x  1 Levels for Diagnostic #  2672 TRAC2b
(PID.TID 0000.0001) SETDIAG: Allocate 15 x  1 Levels for Diagnostic #  2684 TRAC2c
(PID.TID 0000.0001) SETDIAG: Allocate 15 x  1 Levels for Diagnostic #  2696 TRAC2d
(PID.TID 0000.0001)   space allocated for all diagnostics:    3105 levels
(PID.TID 0000.0001) DIAGNOSTICS_SET_POINTERS: Set levels for Outp.Stream: darwin
(PID.TID 0000.0001)  Levels:       1.   2.   3.   4.   5.   6.   7.   8.   9.  10.  11.  12.  13.  14.  15.
(PID.TID 0000.0001) DIAGNOSTICS_SET_POINTERS: done
(PID.TID 0000.0001) ------------------------------------------------------------
(PID.TID 0000.0001) DIAGSTATS_SET_REGIONS: define no region
(PID.TID 0000.0001) ------------------------------------------------------------
(PID.TID 0000.0001)   space allocated for all stats-diags:       0 levels
(PID.TID 0000.0001) DIAGSTATS_SET_POINTERS: done
(PID.TID 0000.0001) ------------------------------------------------------------
(PID.TID 0000.0001) %MON fCori_max                    =   1.4579854531444176E-04
(PID.TID 0000.0001) %MON fCori_min                    =  -1.4579854531444176E-04
(PID.TID 0000.0001) %MON fCori_mean                   =   9.5291206566108788E-22
(PID.TID 0000.0001) %MON fCori_sd                     =   1.0312619976227602E-04
(PID.TID 0000.0001) %MON fCoriG_max                   =   1.4566679669713735E-04
(PID.TID 0000.0001) %MON fCoriG_min                   =  -1.4584247033980750E-04
(PID.TID 0000.0001) %MON fCoriG_mean                  =  -2.2787885990594938E-06
(PID.TID 0000.0001) %MON fCoriG_sd                    =   1.0310101939326063E-04
(PID.TID 0000.0001) %MON fCoriCos_max                 =   1.4579854531444176E-04
(PID.TID 0000.0001) %MON fCoriCos_min                 =   3.5791533929552697E-06
(PID.TID 0000.0001) %MON fCoriCos_mean                =   9.2855522572227709E-05
(PID.TID 0000.0001) %MON fCoriCos_sd                  =   4.4864964117306900E-05
(PID.TID 0000.0001) INI_CG2D: CG2D normalisation factor =  6.8918025187312258E-05
(PID.TID 0000.0001) 
(PID.TID 0000.0001) // =======================================================
(PID.TID 0000.0001) // Model configuration
(PID.TID 0000.0001) // =======================================================
(PID.TID 0000.0001) //
(PID.TID 0000.0001) // "Physical" paramters ( PARM01 in namelist )
(PID.TID 0000.0001) //
(PID.TID 0000.0001) buoyancyRelation = /* Type of relation to get Buoyancy */
(PID.TID 0000.0001)               'OCEANIC'
(PID.TID 0000.0001)     ;
(PID.TID 0000.0001) fluidIsAir   =  /* fluid major constituent is Air */
(PID.TID 0000.0001)                   F
(PID.TID 0000.0001)     ;
(PID.TID 0000.0001) fluidIsWater =  /* fluid major constituent is Water */
(PID.TID 0000.0001)                   T
(PID.TID 0000.0001)     ;
(PID.TID 0000.0001) usingPCoords =  /* use p (or p*) vertical coordinate */
(PID.TID 0000.0001)                   F
(PID.TID 0000.0001)     ;
(PID.TID 0000.0001) usingZCoords =  /* use z (or z*) vertical coordinate */
(PID.TID 0000.0001)                   T
(PID.TID 0000.0001)     ;
(PID.TID 0000.0001) tRef =   /* Reference temperature profile ( oC or K ) */
(PID.TID 0000.0001)    15 @  2.000000000000000E+01              /* K =  1: 15 */
(PID.TID 0000.0001)     ;
(PID.TID 0000.0001) sRef =   /* Reference salinity profile ( psu ) */
(PID.TID 0000.0001)    15 @  3.500000000000000E+01              /* K =  1: 15 */
(PID.TID 0000.0001)     ;
(PID.TID 0000.0001) viscAh  =   /* Lateral eddy viscosity ( m^2/s ) */
(PID.TID 0000.0001)                 5.000000000000000E+05
(PID.TID 0000.0001)     ;
(PID.TID 0000.0001) viscAhMax = /* Maximum lateral eddy viscosity ( m^2/s ) */
(PID.TID 0000.0001)                 1.000000000000000E+21
(PID.TID 0000.0001)     ;
(PID.TID 0000.0001) viscAhGrid = /* Grid dependent lateral eddy viscosity ( non-dim. ) */
(PID.TID 0000.0001)                 0.000000000000000E+00
(PID.TID 0000.0001)     ;
(PID.TID 0000.0001) useFullLeith = /* Use Full Form of Leith Viscosity on/off flag*/
(PID.TID 0000.0001)                   F
(PID.TID 0000.0001)     ;
(PID.TID 0000.0001) useStrainTensionVisc= /* Use StrainTension Form of Viscous Operator flag*/
(PID.TID 0000.0001)                   F
(PID.TID 0000.0001)     ;
(PID.TID 0000.0001) useAreaViscLength = /* Use area for visc length instead of geom. mean*/
(PID.TID 0000.0001)                   F
(PID.TID 0000.0001)     ;
(PID.TID 0000.0001) viscC2leith = /* Leith harmonic visc. factor (on grad(vort),non-dim.) */
(PID.TID 0000.0001)                 0.000000000000000E+00
(PID.TID 0000.0001)     ;
(PID.TID 0000.0001) viscC2leithD = /* Leith harmonic viscosity factor (on grad(div),non-dim.)*/
(PID.TID 0000.0001)                 0.000000000000000E+00
(PID.TID 0000.0001)     ;
(PID.TID 0000.0001) viscC2smag = /* Smagorinsky harmonic viscosity factor (non-dim.) */
(PID.TID 0000.0001)                 0.000000000000000E+00
(PID.TID 0000.0001)     ;
(PID.TID 0000.0001) viscA4  =   /* Lateral biharmonic viscosity ( m^4/s ) */
(PID.TID 0000.0001)                 0.000000000000000E+00
(PID.TID 0000.0001)     ;
(PID.TID 0000.0001) viscA4Max = /* Maximum biharmonic viscosity ( m^2/s ) */
(PID.TID 0000.0001)                 1.000000000000000E+21
(PID.TID 0000.0001)     ;
(PID.TID 0000.0001) viscA4Grid = /* Grid dependent biharmonic viscosity ( non-dim. ) */
(PID.TID 0000.0001)                 0.000000000000000E+00
(PID.TID 0000.0001)     ;
(PID.TID 0000.0001) viscC4leith = /* Leith biharm viscosity factor (on grad(vort), non-dim.)*/
(PID.TID 0000.0001)                 0.000000000000000E+00
(PID.TID 0000.0001)     ;
(PID.TID 0000.0001) viscC4leithD = /* Leith biharm viscosity factor (on grad(div), non-dim.) */
(PID.TID 0000.0001)                 0.000000000000000E+00
(PID.TID 0000.0001)     ;
(PID.TID 0000.0001) viscC4Smag = /* Smagorinsky biharm viscosity factor (non-dim) */
(PID.TID 0000.0001)                 0.000000000000000E+00
(PID.TID 0000.0001)     ;
(PID.TID 0000.0001) no_slip_sides =  /* Viscous BCs: No-slip sides */
(PID.TID 0000.0001)                   T
(PID.TID 0000.0001)     ;
(PID.TID 0000.0001) sideDragFactor = /* side-drag scaling factor (non-dim) */
(PID.TID 0000.0001)                 2.000000000000000E+00
(PID.TID 0000.0001)     ;
(PID.TID 0000.0001) viscArNr = /* vertical profile of vertical viscosity ( m^2/s )*/
(PID.TID 0000.0001)    15 @  1.000000000000000E-03              /* K =  1: 15 */
(PID.TID 0000.0001)     ;
(PID.TID 0000.0001) no_slip_bottom =  /* Viscous BCs: No-slip bottom */
(PID.TID 0000.0001)                   T
(PID.TID 0000.0001)     ;
(PID.TID 0000.0001) bottomDragLinear = /* linear bottom-drag coefficient ( m/s ) */
(PID.TID 0000.0001)                 0.000000000000000E+00
(PID.TID 0000.0001)     ;
(PID.TID 0000.0001) bottomDragQuadratic = /* quadratic bottom-drag coefficient (-) */
(PID.TID 0000.0001)                 0.000000000000000E+00
(PID.TID 0000.0001)     ;
(PID.TID 0000.0001) diffKhT =   /* Laplacian diffusion of heat laterally ( m^2/s ) */
(PID.TID 0000.0001)                 0.000000000000000E+00
(PID.TID 0000.0001)     ;
(PID.TID 0000.0001) diffK4T =   /* Biharmonic diffusion of heat laterally ( m^4/s ) */
(PID.TID 0000.0001)                 0.000000000000000E+00
(PID.TID 0000.0001)     ;
(PID.TID 0000.0001) diffKhS =   /* Laplacian diffusion of salt laterally ( m^2/s ) */
(PID.TID 0000.0001)                 0.000000000000000E+00
(PID.TID 0000.0001)     ;
(PID.TID 0000.0001) diffK4S =   /* Biharmonic diffusion of salt laterally ( m^4/s ) */
(PID.TID 0000.0001)                 0.000000000000000E+00
(PID.TID 0000.0001)     ;
(PID.TID 0000.0001) diffKrNrT = /* vertical profile of vertical diffusion of Temp ( m^2/s )*/
(PID.TID 0000.0001)    15 @  5.000000000000000E-05              /* K =  1: 15 */
(PID.TID 0000.0001)     ;
(PID.TID 0000.0001) diffKrNrS = /* vertical profile of vertical diffusion of Salt ( m^2/s )*/
(PID.TID 0000.0001)    15 @  5.000000000000000E-05              /* K =  1: 15 */
(PID.TID 0000.0001)     ;
(PID.TID 0000.0001) diffKrBL79surf = /* Surface diffusion for Bryan and Lewis 79 ( m^2/s ) */
(PID.TID 0000.0001)                 0.000000000000000E+00
(PID.TID 0000.0001)     ;
(PID.TID 0000.0001) diffKrBL79deep = /* Deep diffusion for Bryan and Lewis 1979 ( m^2/s ) */
(PID.TID 0000.0001)                 0.000000000000000E+00
(PID.TID 0000.0001)     ;
(PID.TID 0000.0001) diffKrBL79scl = /* Depth scale for Bryan and Lewis 1979 ( m ) */
(PID.TID 0000.0001)                 2.000000000000000E+02
(PID.TID 0000.0001)     ;
(PID.TID 0000.0001) diffKrBL79Ho = /* Turning depth for Bryan and Lewis 1979 ( m ) */
(PID.TID 0000.0001)                -2.000000000000000E+03
(PID.TID 0000.0001)     ;
(PID.TID 0000.0001) ivdc_kappa = /* Implicit Vertical Diffusivity for Convection ( m^2/s) */
(PID.TID 0000.0001)                 1.000000000000000E+02
(PID.TID 0000.0001)     ;
(PID.TID 0000.0001) hMixCriteria=  /* Criteria for mixed-layer diagnostic */
(PID.TID 0000.0001)                -8.000000000000000E-01
(PID.TID 0000.0001)     ;
(PID.TID 0000.0001) dRhoSmall =  /* Parameter for mixed-layer diagnostic */
(PID.TID 0000.0001)                 1.000000000000000E-06
(PID.TID 0000.0001)     ;
(PID.TID 0000.0001) hMixSmooth=  /* Smoothing parameter for mixed-layer diagnostic */
(PID.TID 0000.0001)                 0.000000000000000E+00
(PID.TID 0000.0001)     ;
(PID.TID 0000.0001) eosType =  /* Type of Equation of State */
(PID.TID 0000.0001)               'POLY3 '
(PID.TID 0000.0001)     ;
(PID.TID 0000.0001)   1  13.497  32.600  24.570  -0.202   0.771  -0.005  -0.002   0.000   0.000   0.000   0.000   0.000
(PID.TID 0000.0001)   2  13.488  32.600  24.840  -0.203   0.770  -0.005  -0.002   0.000   0.000   0.000   0.000   0.000
(PID.TID 0000.0001)   3  13.476  32.600  25.221  -0.205   0.770  -0.005  -0.002   0.000   0.000   0.000   0.000   0.000
(PID.TID 0000.0001)   4   8.469  35.150  28.657  -0.163   0.781  -0.005  -0.002   0.001   0.000   0.000   0.000   0.000
(PID.TID 0000.0001)   5   8.451  35.150  29.405  -0.167   0.780  -0.005  -0.002   0.001   0.000   0.000   0.000   0.000
(PID.TID 0000.0001)   6   5.940  34.900  30.574  -0.145   0.784  -0.006  -0.002   0.001   0.000   0.000   0.000   0.000
(PID.TID 0000.0001)   7   4.425  34.900  31.991  -0.135   0.786  -0.006  -0.003   0.000   0.000   0.000   0.000   0.000
(PID.TID 0000.0001)   8   2.911  34.750  33.505  -0.125   0.787  -0.006  -0.003  -0.000   0.000   0.000   0.000   0.000
(PID.TID 0000.0001)   9   1.893  34.800  35.333  -0.123   0.787  -0.006  -0.003  -0.000   0.000   0.000   0.000   0.000
(PID.TID 0000.0001)  10   1.367  34.800  37.279  -0.129   0.785  -0.006  -0.003  -0.001   0.000   0.000   0.000   0.000
(PID.TID 0000.0001)  11   1.328  34.800  39.372  -0.141   0.781  -0.006  -0.003  -0.002   0.000   0.000   0.000   0.000
(PID.TID 0000.0001)  12   0.792  34.800  41.739  -0.149   0.778  -0.006  -0.003  -0.001   0.000   0.000   0.000   0.000
(PID.TID 0000.0001)  13   0.737  34.750  44.192  -0.163   0.774  -0.005  -0.002  -0.003   0.000   0.000   0.000   0.000
(PID.TID 0000.0001)  14   0.188  34.750  46.956  -0.174   0.770  -0.005  -0.002  -0.002   0.000   0.000   0.000   0.000
(PID.TID 0000.0001)  15   0.596  34.750  49.726  -0.195   0.764  -0.005  -0.002  -0.001   0.000   0.000   0.000   0.000
(PID.TID 0000.0001) celsius2K = /* 0 degree Celsius converted to Kelvin ( K ) */
(PID.TID 0000.0001)                 2.731500000000000E+02
(PID.TID 0000.0001)     ;
(PID.TID 0000.0001) rhoConst  = /* Reference density (Boussinesq)  ( kg/m^3 ) */
(PID.TID 0000.0001)                 1.035000000000000E+03
(PID.TID 0000.0001)     ;
(PID.TID 0000.0001) rhoFacC = /* normalized Reference density @ cell-Center (-) */
(PID.TID 0000.0001)    15 @  1.000000000000000E+00              /* K =  1: 15 */
(PID.TID 0000.0001)     ;
(PID.TID 0000.0001) rhoFacF = /* normalized Reference density @ W-Interface (-) */
(PID.TID 0000.0001)    16 @  1.000000000000000E+00              /* K =  1: 16 */
(PID.TID 0000.0001)     ;
(PID.TID 0000.0001) rhoConstFresh = /* Fresh-water reference density ( kg/m^3 ) */
(PID.TID 0000.0001)                 1.035000000000000E+03
(PID.TID 0000.0001)     ;
(PID.TID 0000.0001) gravity =   /* Gravitational acceleration ( m/s^2 ) */
(PID.TID 0000.0001)                 9.810000000000000E+00
(PID.TID 0000.0001)     ;
(PID.TID 0000.0001) gBaro =   /* Barotropic gravity ( m/s^2 ) */
(PID.TID 0000.0001)                 9.810000000000000E+00
(PID.TID 0000.0001)     ;
(PID.TID 0000.0001) rotationPeriod =   /* Rotation Period ( s ) */
(PID.TID 0000.0001)                 8.616400000000000E+04
(PID.TID 0000.0001)     ;
(PID.TID 0000.0001) omega =   /* Angular velocity ( rad/s ) */
(PID.TID 0000.0001)                 7.292123516990375E-05
(PID.TID 0000.0001)     ;
(PID.TID 0000.0001) f0 =   /* Reference coriolis parameter ( 1/s ) */
(PID.TID 0000.0001)                 1.000000000000000E-04
(PID.TID 0000.0001)     ;
(PID.TID 0000.0001) beta =   /* Beta ( 1/(m.s) ) */
(PID.TID 0000.0001)                 9.999999999999999E-12
(PID.TID 0000.0001)     ;
(PID.TID 0000.0001) fPrime =   /* Second coriolis parameter ( 1/s ) */
(PID.TID 0000.0001)                 0.000000000000000E+00
(PID.TID 0000.0001)     ;
(PID.TID 0000.0001) rigidLid =   /* Rigid lid on/off flag */
(PID.TID 0000.0001)                   F
(PID.TID 0000.0001)     ;
(PID.TID 0000.0001) implicitFreeSurface =   /* Implicit free surface on/off flag */
(PID.TID 0000.0001)                   T
(PID.TID 0000.0001)     ;
(PID.TID 0000.0001) freeSurfFac =   /* Implicit free surface factor */
(PID.TID 0000.0001)                 1.000000000000000E+00
(PID.TID 0000.0001)     ;
(PID.TID 0000.0001) implicSurfPress =  /* Surface Pressure implicit factor (0-1)*/
(PID.TID 0000.0001)                 1.000000000000000E+00
(PID.TID 0000.0001)     ;
(PID.TID 0000.0001) implicDiv2Dflow =  /* Barot. Flow Div. implicit factor (0-1)*/
(PID.TID 0000.0001)                 1.000000000000000E+00
(PID.TID 0000.0001)     ;
(PID.TID 0000.0001) uniformLin_PhiSurf = /* use uniform Bo_surf on/off flag*/
(PID.TID 0000.0001)                   T
(PID.TID 0000.0001)     ;
(PID.TID 0000.0001) uniformFreeSurfLev = /* free-surface level-index is uniform */
(PID.TID 0000.0001)                   T
(PID.TID 0000.0001)     ;
(PID.TID 0000.0001) hFacMin =   /* minimum partial cell factor (hFac) */
(PID.TID 0000.0001)                 1.000000000000000E+00
(PID.TID 0000.0001)     ;
(PID.TID 0000.0001) hFacMinDr = /* minimum partial cell thickness ( m) */
(PID.TID 0000.0001)                 1.000000000000000E+00
(PID.TID 0000.0001)     ;
(PID.TID 0000.0001) exactConserv =  /* Exact Volume Conservation on/off flag*/
(PID.TID 0000.0001)                   F
(PID.TID 0000.0001)     ;
(PID.TID 0000.0001) linFSConserveTr = /* Tracer correction for Lin Free Surface on/off flag*/
(PID.TID 0000.0001)                   F
(PID.TID 0000.0001)     ;
(PID.TID 0000.0001) nonlinFreeSurf = /* Non-linear Free Surf. options (-1,0,1,2,3)*/
(PID.TID 0000.0001)                       0
(PID.TID 0000.0001)      -1,0= Off ; 1,2,3= On, 2=+rescale gU,gV, 3=+update cg2d solv.
(PID.TID 0000.0001)     ;
(PID.TID 0000.0001) hFacInf =   /* lower threshold for hFac (nonlinFreeSurf only)*/
(PID.TID 0000.0001)                 2.000000000000000E-01
(PID.TID 0000.0001)     ;
(PID.TID 0000.0001) hFacSup =   /* upper threshold for hFac (nonlinFreeSurf only)*/
(PID.TID 0000.0001)                 2.000000000000000E+00
(PID.TID 0000.0001)     ;
(PID.TID 0000.0001) select_rStar = /* r* Vertical coord. options (=0 r coord.; >0 uses r*)*/
(PID.TID 0000.0001)                       0
(PID.TID 0000.0001)     ;
(PID.TID 0000.0001) useRealFreshWaterFlux = /* Real Fresh Water Flux on/off flag*/
(PID.TID 0000.0001)                   F
(PID.TID 0000.0001)     ;
(PID.TID 0000.0001) temp_EvPrRn = /* Temp. of Evap/Prec/R (UNSET=use local T)(oC)*/
(PID.TID 0000.0001)                 1.234567000000000E+05
(PID.TID 0000.0001)     ;
(PID.TID 0000.0001) salt_EvPrRn = /* Salin. of Evap/Prec/R (UNSET=use local S)(psu)*/
(PID.TID 0000.0001)                 0.000000000000000E+00
(PID.TID 0000.0001)     ;
(PID.TID 0000.0001) selectAddFluid = /* option for mass source/sink of fluid (=0: off) */
(PID.TID 0000.0001)                       0
(PID.TID 0000.0001)     ;
(PID.TID 0000.0001) temp_addMass = /* Temp. of addMass array (UNSET=use local T)(oC)*/
(PID.TID 0000.0001)                 1.234567000000000E+05
(PID.TID 0000.0001)     ;
(PID.TID 0000.0001) salt_addMass = /* Salin. of addMass array (UNSET=use local S)(psu)*/
(PID.TID 0000.0001)                 0.000000000000000E+00
(PID.TID 0000.0001)     ;
(PID.TID 0000.0001) convertFW2Salt = /* convert F.W. Flux to Salt Flux (-1=use local S)(psu)*/
(PID.TID 0000.0001)                 3.500000000000000E+01
(PID.TID 0000.0001)     ;
(PID.TID 0000.0001) use3Dsolver = /* use 3-D pressure solver on/off flag */
(PID.TID 0000.0001)                   F
(PID.TID 0000.0001)     ;
(PID.TID 0000.0001) nonHydrostatic =  /* Non-Hydrostatic on/off flag */
(PID.TID 0000.0001)                   F
(PID.TID 0000.0001)     ;
(PID.TID 0000.0001) nh_Am2 = /* Non-Hydrostatic terms scaling factor */
(PID.TID 0000.0001)                 1.000000000000000E+00
(PID.TID 0000.0001)     ;
(PID.TID 0000.0001) implicitNHPress = /* Non-Hyd Pressure implicit factor (0-1)*/
(PID.TID 0000.0001)                 1.000000000000000E+00
(PID.TID 0000.0001)     ;
(PID.TID 0000.0001) selectNHfreeSurf = /* Non-Hyd (free-)Surface option */
(PID.TID 0000.0001)                       0
(PID.TID 0000.0001)     ;
(PID.TID 0000.0001) quasiHydrostatic = /* Quasi-Hydrostatic on/off flag */
(PID.TID 0000.0001)                   F
(PID.TID 0000.0001)     ;
(PID.TID 0000.0001) calc_wVelocity = /* vertical velocity calculation on/off flag */
(PID.TID 0000.0001)                   T
(PID.TID 0000.0001)     ;
(PID.TID 0000.0001) momStepping =  /* Momentum equation on/off flag */
(PID.TID 0000.0001)                   T
(PID.TID 0000.0001)     ;
(PID.TID 0000.0001) vectorInvariantMomentum= /* Vector-Invariant Momentum on/off */
(PID.TID 0000.0001)                   F
(PID.TID 0000.0001)     ;
(PID.TID 0000.0001) momAdvection =  /* Momentum advection on/off flag */
(PID.TID 0000.0001)                   T
(PID.TID 0000.0001)     ;
(PID.TID 0000.0001) momViscosity =  /* Momentum viscosity on/off flag */
(PID.TID 0000.0001)                   T
(PID.TID 0000.0001)     ;
(PID.TID 0000.0001) momImplVertAdv= /* Momentum implicit vert. advection on/off*/
(PID.TID 0000.0001)                   F
(PID.TID 0000.0001)     ;
(PID.TID 0000.0001) implicitViscosity = /* Implicit viscosity on/off flag */
(PID.TID 0000.0001)                   T
(PID.TID 0000.0001)     ;
(PID.TID 0000.0001) metricTerms =  /* metric-Terms on/off flag */
(PID.TID 0000.0001)                   T
(PID.TID 0000.0001)     ;
(PID.TID 0000.0001) useNHMTerms = /* Non-Hydrostatic Metric-Terms on/off */
(PID.TID 0000.0001)                   F
(PID.TID 0000.0001)     ;
(PID.TID 0000.0001) selectCoriMap = /* Coriolis Map options (0,1,2,3)*/
(PID.TID 0000.0001)                       2
(PID.TID 0000.0001)     0= f-Plane ; 1= Beta-Plane ; 2= Spherical ; 3= read from file
(PID.TID 0000.0001)     ;
(PID.TID 0000.0001) use3dCoriolis = /* 3-D Coriolis on/off flag */
(PID.TID 0000.0001)                   F
(PID.TID 0000.0001)     ;
(PID.TID 0000.0001) useCoriolis =  /* Coriolis on/off flag */
(PID.TID 0000.0001)                   T
(PID.TID 0000.0001)     ;
(PID.TID 0000.0001) useCDscheme =  /* CD scheme on/off flag */
(PID.TID 0000.0001)                   T
(PID.TID 0000.0001)     ;
(PID.TID 0000.0001) useEnergyConservingCoriolis= /* Flx-Form Coriolis scheme flag */
(PID.TID 0000.0001)                   F
(PID.TID 0000.0001)     ;
(PID.TID 0000.0001) useJamartWetPoints= /* Coriolis WetPoints method flag */
(PID.TID 0000.0001)                   F
(PID.TID 0000.0001)     ;
(PID.TID 0000.0001) useJamartMomAdv= /* V.I Non-linear terms Jamart flag */
(PID.TID 0000.0001)                   F
(PID.TID 0000.0001)     ;
(PID.TID 0000.0001) useAbsVorticity= /* V.I Works with f+zeta in Coriolis */
(PID.TID 0000.0001)                   F
(PID.TID 0000.0001)     ;
(PID.TID 0000.0001) selectVortScheme= /* V.I Scheme selector for Vorticity-Term */
(PID.TID 0000.0001)               123456789
(PID.TID 0000.0001)    = 0 : enstrophy (Shallow-Water Eq.) conserving scheme by Sadourny, JAS 75
(PID.TID 0000.0001)    = 1 : same as 0 with modified hFac
(PID.TID 0000.0001)    = 2 : energy conserving scheme (used by Sadourny in JAS 75 paper)
(PID.TID 0000.0001)    = 3 : energy (general) and enstrophy (2D, nonDiv.) conserving scheme
(PID.TID 0000.0001)          from Sadourny (Burridge & Haseler, ECMWF Rep.4, 1977)
(PID.TID 0000.0001)     ;
(PID.TID 0000.0001) upwindVorticity= /* V.I Upwind bias vorticity flag */
(PID.TID 0000.0001)                   F
(PID.TID 0000.0001)     ;
(PID.TID 0000.0001) highOrderVorticity= /* V.I High order vort. advect. flag */
(PID.TID 0000.0001)                   F
(PID.TID 0000.0001)     ;
(PID.TID 0000.0001) upwindShear= /* V.I Upwind vertical Shear advection flag */
(PID.TID 0000.0001)                   F
(PID.TID 0000.0001)     ;
(PID.TID 0000.0001) selectKEscheme= /* V.I Kinetic Energy scheme selector */
(PID.TID 0000.0001)                       0
(PID.TID 0000.0001)     ;
(PID.TID 0000.0001) momForcing =  /* Momentum forcing on/off flag */
(PID.TID 0000.0001)                   T
(PID.TID 0000.0001)     ;
(PID.TID 0000.0001) momPressureForcing =  /* Momentum pressure term on/off flag */
(PID.TID 0000.0001)                   T
(PID.TID 0000.0001)     ;
(PID.TID 0000.0001) implicitIntGravWave= /* Implicit Internal Gravity Wave flag */
(PID.TID 0000.0001)                   F
(PID.TID 0000.0001)     ;
(PID.TID 0000.0001) staggerTimeStep =    /* Stagger time stepping on/off flag */
(PID.TID 0000.0001)                   F
(PID.TID 0000.0001)     ;
(PID.TID 0000.0001) doResetHFactors = /* reset thickness factors @ each time-step */
(PID.TID 0000.0001)                   F
(PID.TID 0000.0001)     ;
(PID.TID 0000.0001) multiDimAdvection =  /* enable/disable Multi-Dim Advection */
(PID.TID 0000.0001)                   F
(PID.TID 0000.0001)     ;
(PID.TID 0000.0001) useMultiDimAdvec =   /* Multi-Dim Advection is/is-not used */
(PID.TID 0000.0001)                   F
(PID.TID 0000.0001)     ;
(PID.TID 0000.0001) implicitDiffusion = /* Implicit Diffusion on/off flag */
(PID.TID 0000.0001)                   T
(PID.TID 0000.0001)     ;
(PID.TID 0000.0001) tempStepping =  /* Temperature equation on/off flag */
(PID.TID 0000.0001)                   T
(PID.TID 0000.0001)     ;
(PID.TID 0000.0001) tempAdvection = /* Temperature advection on/off flag */
(PID.TID 0000.0001)                   T
(PID.TID 0000.0001)     ;
(PID.TID 0000.0001) tempImplVertAdv = /* Temp. implicit vert. advection on/off */
(PID.TID 0000.0001)                   F
(PID.TID 0000.0001)     ;
(PID.TID 0000.0001) tempForcing  =  /* Temperature forcing on/off flag */
(PID.TID 0000.0001)                   T
(PID.TID 0000.0001)     ;
(PID.TID 0000.0001) doThetaClimRelax = /* apply SST relaxation on/off flag */
(PID.TID 0000.0001)                   T
(PID.TID 0000.0001)     ;
(PID.TID 0000.0001) tempIsActiveTr = /* Temp. is a dynamically Active Tracer */
(PID.TID 0000.0001)                   T
(PID.TID 0000.0001)     ;
(PID.TID 0000.0001) saltStepping =  /* Salinity equation on/off flag */
(PID.TID 0000.0001)                   T
(PID.TID 0000.0001)     ;
(PID.TID 0000.0001) saltAdvection = /* Salinity advection on/off flag */
(PID.TID 0000.0001)                   T
(PID.TID 0000.0001)     ;
(PID.TID 0000.0001) saltImplVertAdv = /* Sali. implicit vert. advection on/off */
(PID.TID 0000.0001)                   F
(PID.TID 0000.0001)     ;
(PID.TID 0000.0001) saltForcing  =  /* Salinity forcing on/off flag */
(PID.TID 0000.0001)                   T
(PID.TID 0000.0001)     ;
(PID.TID 0000.0001) doSaltClimRelax = /* apply SSS relaxation on/off flag */
(PID.TID 0000.0001)                   T
(PID.TID 0000.0001)     ;
(PID.TID 0000.0001) saltIsActiveTr = /* Salt  is a dynamically Active Tracer */
(PID.TID 0000.0001)                   T
(PID.TID 0000.0001)     ;
(PID.TID 0000.0001)  readBinaryPrec = /* Precision used for reading binary files */
(PID.TID 0000.0001)                      32
(PID.TID 0000.0001)     ;
(PID.TID 0000.0001) writeBinaryPrec = /* Precision used for writing binary files */
(PID.TID 0000.0001)                      64
(PID.TID 0000.0001)     ;
(PID.TID 0000.0001)  globalFiles = /* write "global" (=not per tile) files */
(PID.TID 0000.0001)                   F
(PID.TID 0000.0001)     ;
(PID.TID 0000.0001)  useSingleCpuIO = /* only master MPI process does I/O */
(PID.TID 0000.0001)                   F
(PID.TID 0000.0001)     ;
(PID.TID 0000.0001) /* debLev[*]  : level of debug & auxiliary message printing */
(PID.TID 0000.0001) debLevZero =  0 ; /* level of disabled aux. msg printing */
(PID.TID 0000.0001)    debLevA =  1 ; /* level of minimum  aux. msg printing */
(PID.TID 0000.0001)    debLevB =  2 ; /* level of low aux. print (report read-file opening)*/
(PID.TID 0000.0001)    debLevC =  3 ; /* level of moderate debug prt (most pkgs debug msg) */
(PID.TID 0000.0001)    debLevD =  4 ; /* level of enhanced debug prt (add DEBUG_STATS prt) */
(PID.TID 0000.0001)    debLevE =  5 ; /* level of extensive debug printing */
(PID.TID 0000.0001) debugLevel =  /* select debug printing level */
(PID.TID 0000.0001)                       2
(PID.TID 0000.0001)     ;
(PID.TID 0000.0001) //
(PID.TID 0000.0001) // Elliptic solver(s) paramters ( PARM02 in namelist )
(PID.TID 0000.0001) //
(PID.TID 0000.0001) cg2dMaxIters =   /* Upper limit on 2d con. grad iterations  */
(PID.TID 0000.0001)                    1000
(PID.TID 0000.0001)     ;
(PID.TID 0000.0001) cg2dChkResFreq =   /* 2d con. grad convergence test frequency */
(PID.TID 0000.0001)                       1
(PID.TID 0000.0001)     ;
(PID.TID 0000.0001) cg2dUseMinResSol= /* use cg2d last-iter(=0) / min-resid.(=1) solution */
(PID.TID 0000.0001)                       0
(PID.TID 0000.0001)     ;
(PID.TID 0000.0001) cg2dTargetResidual =   /* 2d con. grad target residual  */
(PID.TID 0000.0001)                 1.000000000000000E-13
(PID.TID 0000.0001)     ;
(PID.TID 0000.0001) cg2dTargetResWunit =   /* CG2d target residual [W units] */
(PID.TID 0000.0001)                -1.000000000000000E+00
(PID.TID 0000.0001)     ;
(PID.TID 0000.0001) cg2dPreCondFreq =   /* Freq. for updating cg2d preconditioner */
(PID.TID 0000.0001)                       1
(PID.TID 0000.0001)     ;
(PID.TID 0000.0001) useSRCGSolver =  /* use single reduction CG solver(s) */
(PID.TID 0000.0001)                   F
(PID.TID 0000.0001)     ;
(PID.TID 0000.0001) printResidualFreq = /* Freq. for printing CG residual */
(PID.TID 0000.0001)                       0
(PID.TID 0000.0001)     ;
(PID.TID 0000.0001) //
(PID.TID 0000.0001) // Time stepping paramters ( PARM03 in namelist )
(PID.TID 0000.0001) //
(PID.TID 0000.0001) deltaTMom =   /* Momentum equation timestep ( s ) */
(PID.TID 0000.0001)                 9.000000000000000E+02
(PID.TID 0000.0001)     ;
(PID.TID 0000.0001) deltaTFreeSurf = /* FreeSurface equation timestep ( s ) */
(PID.TID 0000.0001)                 9.000000000000000E+02
(PID.TID 0000.0001)     ;
(PID.TID 0000.0001) dTtracerLev =  /* Tracer equation timestep ( s ) */
(PID.TID 0000.0001)    15 @  4.320000000000000E+04              /* K =  1: 15 */
(PID.TID 0000.0001)     ;
(PID.TID 0000.0001) deltaTClock  =   /* Model clock timestep ( s ) */
(PID.TID 0000.0001)                 4.320000000000000E+04
(PID.TID 0000.0001)     ;
(PID.TID 0000.0001) cAdjFreq =   /* Convective adjustment interval ( s ) */
(PID.TID 0000.0001)                 0.000000000000000E+00
(PID.TID 0000.0001)     ;
(PID.TID 0000.0001) momForcingOutAB = /* =1: take Momentum Forcing out of Adams-Bash. stepping */
(PID.TID 0000.0001)                       0
(PID.TID 0000.0001)     ;
(PID.TID 0000.0001) tracForcingOutAB = /* =1: take T,S,pTr Forcing out of Adams-Bash. stepping */
(PID.TID 0000.0001)                       0
(PID.TID 0000.0001)     ;
(PID.TID 0000.0001) momDissip_In_AB = /* put Dissipation Tendency in Adams-Bash. stepping */
(PID.TID 0000.0001)                   T
(PID.TID 0000.0001)     ;
(PID.TID 0000.0001) doAB_onGtGs = /* apply AB on Tendencies (rather than on T,S)*/
(PID.TID 0000.0001)                   T
(PID.TID 0000.0001)     ;
(PID.TID 0000.0001) abEps =   /* Adams-Bashforth-2 stabilizing weight */
(PID.TID 0000.0001)                 1.000000000000000E-01
(PID.TID 0000.0001)     ;
(PID.TID 0000.0001) tauCD =   /* CD coupling time-scale ( s ) */
(PID.TID 0000.0001)                 3.214280000000000E+05
(PID.TID 0000.0001)     ;
(PID.TID 0000.0001) rCD =   /* Normalised CD coupling parameter */
(PID.TID 0000.0001)                 9.971999950222133E-01
(PID.TID 0000.0001)     ;
(PID.TID 0000.0001) epsAB_CD = /* AB-2 stabilizing weight for CD-scheme*/
(PID.TID 0000.0001)                 1.000000000000000E-01
(PID.TID 0000.0001)     ;
(PID.TID 0000.0001) pickupStrictlyMatch= /* stop if pickup do not strictly match */
(PID.TID 0000.0001)                   F
(PID.TID 0000.0001)     ;
(PID.TID 0000.0001) nIter0   =   /* Run starting timestep number */
(PID.TID 0000.0001)                 5644800
(PID.TID 0000.0001)     ;
(PID.TID 0000.0001) nTimeSteps = /* Number of timesteps */
(PID.TID 0000.0001)                       4
(PID.TID 0000.0001)     ;
(PID.TID 0000.0001) nEndIter =   /* Run ending timestep number */
(PID.TID 0000.0001)                 5644804
(PID.TID 0000.0001)     ;
(PID.TID 0000.0001) baseTime =   /* Model base time ( s ) */
(PID.TID 0000.0001)                 0.000000000000000E+00
(PID.TID 0000.0001)     ;
(PID.TID 0000.0001) startTime =  /* Run start time ( s ) */
(PID.TID 0000.0001)                 2.438553600000000E+11
(PID.TID 0000.0001)     ;
(PID.TID 0000.0001) endTime  =   /* Integration ending time ( s ) */
(PID.TID 0000.0001)                 2.438555328000000E+11
(PID.TID 0000.0001)     ;
(PID.TID 0000.0001) pChkPtFreq = /* Permanent restart/pickup file interval ( s ) */
(PID.TID 0000.0001)                 3.110400000000000E+08
(PID.TID 0000.0001)     ;
(PID.TID 0000.0001) chkPtFreq  = /* Rolling restart/pickup file interval ( s ) */
(PID.TID 0000.0001)                 3.110400000000000E+08
(PID.TID 0000.0001)     ;
(PID.TID 0000.0001) pickup_write_mdsio =   /* Model IO flag. */
(PID.TID 0000.0001)                   T
(PID.TID 0000.0001)     ;
(PID.TID 0000.0001) pickup_read_mdsio =   /* Model IO flag. */
(PID.TID 0000.0001)                   T
(PID.TID 0000.0001)     ;
(PID.TID 0000.0001) pickup_write_mnc =   /* Model IO flag. */
(PID.TID 0000.0001)                   F
(PID.TID 0000.0001)     ;
(PID.TID 0000.0001) pickup_read_mnc =   /* Model IO flag. */
(PID.TID 0000.0001)                   F
(PID.TID 0000.0001)     ;
(PID.TID 0000.0001) pickup_write_immed =   /* Model IO flag. */
(PID.TID 0000.0001)                   F
(PID.TID 0000.0001)     ;
(PID.TID 0000.0001) writePickupAtEnd =   /* Model IO flag. */
(PID.TID 0000.0001)                   T
(PID.TID 0000.0001)     ;
(PID.TID 0000.0001) dumpFreq =   /* Model state write out interval ( s ). */
(PID.TID 0000.0001)                 4.320000000000000E+04
(PID.TID 0000.0001)     ;
(PID.TID 0000.0001) dumpInitAndLast= /* write out Initial & Last iter. model state */
(PID.TID 0000.0001)                   T
(PID.TID 0000.0001)     ;
(PID.TID 0000.0001) snapshot_mdsio =   /* Model IO flag. */
(PID.TID 0000.0001)                   F
(PID.TID 0000.0001)     ;
(PID.TID 0000.0001) snapshot_mnc =   /* Model IO flag. */
(PID.TID 0000.0001)                   T
(PID.TID 0000.0001)     ;
(PID.TID 0000.0001) monitorFreq =   /* Monitor output interval ( s ). */
(PID.TID 0000.0001)                 4.320000000000000E+04
(PID.TID 0000.0001)     ;
(PID.TID 0000.0001) monitorSelect = /* select group of variables to monitor */
(PID.TID 0000.0001)                       3
(PID.TID 0000.0001)     ;
(PID.TID 0000.0001) monitor_stdio =   /* Model IO flag. */
(PID.TID 0000.0001)                   T
(PID.TID 0000.0001)     ;
(PID.TID 0000.0001) monitor_mnc =   /* Model IO flag. */
(PID.TID 0000.0001)                   F
(PID.TID 0000.0001)     ;
(PID.TID 0000.0001) externForcingPeriod =   /* forcing period (s) */
(PID.TID 0000.0001)                 2.592000000000000E+06
(PID.TID 0000.0001)     ;
(PID.TID 0000.0001) externForcingCycle =   /* period of the cyle (s). */
(PID.TID 0000.0001)                 3.110400000000000E+07
(PID.TID 0000.0001)     ;
(PID.TID 0000.0001) tauThetaClimRelax =   /* relaxation time scale (s) */
(PID.TID 0000.0001)                 5.184000000000000E+06
(PID.TID 0000.0001)     ;
(PID.TID 0000.0001) tauSaltClimRelax =   /* relaxation time scale (s) */
(PID.TID 0000.0001)                 7.776000000000000E+06
(PID.TID 0000.0001)     ;
(PID.TID 0000.0001) latBandClimRelax =   /* max. Lat. where relaxation */
(PID.TID 0000.0001)                 1.800000000000000E+02
(PID.TID 0000.0001)     ;
(PID.TID 0000.0001) //
(PID.TID 0000.0001) // Gridding paramters ( PARM04 in namelist )
(PID.TID 0000.0001) //
(PID.TID 0000.0001) usingCartesianGrid = /* Cartesian coordinates flag ( True/False ) */
(PID.TID 0000.0001)                   F
(PID.TID 0000.0001)     ;
(PID.TID 0000.0001) usingCylindricalGrid = /* Cylindrical coordinates flag ( True/False ) */
(PID.TID 0000.0001)                   F
(PID.TID 0000.0001)     ;
(PID.TID 0000.0001) usingSphericalPolarGrid = /* Spherical coordinates flag ( True/False ) */
(PID.TID 0000.0001)                   T
(PID.TID 0000.0001)     ;
(PID.TID 0000.0001) usingCurvilinearGrid = /* Curvilinear coordinates flag ( True/False ) */
(PID.TID 0000.0001)                   F
(PID.TID 0000.0001)     ;
(PID.TID 0000.0001) selectSigmaCoord = /* Hybrid-Sigma Vert. Coordinate option */
(PID.TID 0000.0001)                       0
(PID.TID 0000.0001)     ;
(PID.TID 0000.0001) Ro_SeaLevel = /* r(1) ( units of r ==  m ) */
(PID.TID 0000.0001)                 0.000000000000000E+00
(PID.TID 0000.0001)     ;
(PID.TID 0000.0001) rSigmaBnd = /* r/sigma transition ( units of r ==  m ) */
(PID.TID 0000.0001)                 1.234567000000000E+05
(PID.TID 0000.0001)     ;
(PID.TID 0000.0001) rkSign =   /* index orientation relative to vertical coordinate */
(PID.TID 0000.0001)                -1.000000000000000E+00
(PID.TID 0000.0001)     ;
(PID.TID 0000.0001) gravitySign = /* gravity orientation relative to vertical coordinate */
(PID.TID 0000.0001)                -1.000000000000000E+00
(PID.TID 0000.0001)     ;
(PID.TID 0000.0001) mass2rUnit = /* convert mass per unit area [kg/m2] to r-units [m] */
(PID.TID 0000.0001)                 9.661835748792270E-04
(PID.TID 0000.0001)     ;
(PID.TID 0000.0001) rUnit2mass = /* convert r-units [m] to mass per unit area [kg/m2] */
(PID.TID 0000.0001)                 1.035000000000000E+03
(PID.TID 0000.0001)     ;
(PID.TID 0000.0001) drC =   /* C spacing ( units of r ) */
(PID.TID 0000.0001)                 2.500000000000000E+01,      /* K =  1 */
(PID.TID 0000.0001)                 6.000000000000000E+01,      /* K =  2 */
(PID.TID 0000.0001)                 8.500000000000000E+01,      /* K =  3 */
(PID.TID 0000.0001)                 1.200000000000000E+02,      /* K =  4 */
(PID.TID 0000.0001)                 1.650000000000000E+02,      /* K =  5 */
(PID.TID 0000.0001)                 2.150000000000000E+02,      /* K =  6 */
(PID.TID 0000.0001)                 2.650000000000000E+02,      /* K =  7 */
(PID.TID 0000.0001)                 3.150000000000000E+02,      /* K =  8 */
(PID.TID 0000.0001)                 3.650000000000000E+02,      /* K =  9 */
(PID.TID 0000.0001)                 4.150000000000000E+02,      /* K = 10 */
(PID.TID 0000.0001)                 4.650000000000000E+02,      /* K = 11 */
(PID.TID 0000.0001)                 5.150000000000000E+02,      /* K = 12 */
(PID.TID 0000.0001)                 5.650000000000000E+02,      /* K = 13 */
(PID.TID 0000.0001)                 6.150000000000000E+02,      /* K = 14 */
(PID.TID 0000.0001)                 6.650000000000000E+02       /* K = 15 */
(PID.TID 0000.0001)     ;
(PID.TID 0000.0001) drF =   /* W spacing ( units of r ) */
(PID.TID 0000.0001)                 5.000000000000000E+01,      /* K =  1 */
(PID.TID 0000.0001)                 7.000000000000000E+01,      /* K =  2 */
(PID.TID 0000.0001)                 1.000000000000000E+02,      /* K =  3 */
(PID.TID 0000.0001)                 1.400000000000000E+02,      /* K =  4 */
(PID.TID 0000.0001)                 1.900000000000000E+02,      /* K =  5 */
(PID.TID 0000.0001)                 2.400000000000000E+02,      /* K =  6 */
(PID.TID 0000.0001)                 2.900000000000000E+02,      /* K =  7 */
(PID.TID 0000.0001)                 3.400000000000000E+02,      /* K =  8 */
(PID.TID 0000.0001)                 3.900000000000000E+02,      /* K =  9 */
(PID.TID 0000.0001)                 4.400000000000000E+02,      /* K = 10 */
(PID.TID 0000.0001)                 4.900000000000000E+02,      /* K = 11 */
(PID.TID 0000.0001)                 5.400000000000000E+02,      /* K = 12 */
(PID.TID 0000.0001)                 5.900000000000000E+02,      /* K = 13 */
(PID.TID 0000.0001)                 6.400000000000000E+02,      /* K = 14 */
(PID.TID 0000.0001)                 6.900000000000000E+02       /* K = 15 */
(PID.TID 0000.0001)     ;
(PID.TID 0000.0001) delX = /* U spacing ( m - cartesian, degrees - spherical ) */
(PID.TID 0000.0001)   128 @  2.812500000000000E+00              /* I =  1:128 */
(PID.TID 0000.0001)     ;
(PID.TID 0000.0001) delY = /* V spacing ( m - cartesian, degrees - spherical ) */
(PID.TID 0000.0001)    64 @  2.812500000000000E+00              /* J =  1: 64 */
(PID.TID 0000.0001)     ;
(PID.TID 0000.0001) xgOrigin = /* X-axis origin of West  edge (cartesian: m, lat-lon: deg) */
(PID.TID 0000.0001)                 0.000000000000000E+00
(PID.TID 0000.0001)     ;
(PID.TID 0000.0001) ygOrigin = /* Y-axis origin of South edge (cartesian: m, lat-lon: deg) */
(PID.TID 0000.0001)                -9.000000000000000E+01
(PID.TID 0000.0001)     ;
(PID.TID 0000.0001) rSphere =  /* Radius ( ignored - cartesian, m - spherical ) */
(PID.TID 0000.0001)                 6.370000000000000E+06
(PID.TID 0000.0001)     ;
(PID.TID 0000.0001) deepAtmosphere = /* Deep/Shallow Atmosphere flag (True/False) */
(PID.TID 0000.0001)                   F
(PID.TID 0000.0001)     ;
(PID.TID 0000.0001) xC =  /* xC(:,1,:,1) : P-point X coord ( deg. or m if cartesian) */
(PID.TID 0000.0001)                 1.406250000000000E+00,      /* I =  1 */
(PID.TID 0000.0001)                 4.218750000000000E+00,      /* I =  2 */
(PID.TID 0000.0001)                 7.031250000000000E+00,      /* I =  3 */
(PID.TID 0000.0001)      . . .
(PID.TID 0000.0001)                 8.296875000000000E+01,      /* I = 30 */
(PID.TID 0000.0001)                 8.578125000000000E+01,      /* I = 31 */
(PID.TID 0000.0001)                 8.859375000000000E+01,      /* I = 32 */
(PID.TID 0000.0001)                 9.140625000000000E+01,      /* I = 33 */
(PID.TID 0000.0001)                 9.421875000000000E+01,      /* I = 34 */
(PID.TID 0000.0001)                 9.703125000000000E+01,      /* I = 35 */
(PID.TID 0000.0001)      . . .
(PID.TID 0000.0001)                 1.729687500000000E+02,      /* I = 62 */
(PID.TID 0000.0001)                 1.757812500000000E+02,      /* I = 63 */
(PID.TID 0000.0001)                 1.785937500000000E+02,      /* I = 64 */
(PID.TID 0000.0001)                 1.814062500000000E+02,      /* I = 65 */
(PID.TID 0000.0001)                 1.842187500000000E+02,      /* I = 66 */
(PID.TID 0000.0001)                 1.870312500000000E+02,      /* I = 67 */
(PID.TID 0000.0001)      . . .
(PID.TID 0000.0001)                 2.629687500000000E+02,      /* I = 94 */
(PID.TID 0000.0001)                 2.657812500000000E+02,      /* I = 95 */
(PID.TID 0000.0001)                 2.685937500000000E+02,      /* I = 96 */
(PID.TID 0000.0001)                 2.714062500000000E+02,      /* I = 97 */
(PID.TID 0000.0001)                 2.742187500000000E+02,      /* I = 98 */
(PID.TID 0000.0001)                 2.770312500000000E+02,      /* I = 99 */
(PID.TID 0000.0001)      . . .
(PID.TID 0000.0001)                 3.529687500000000E+02,      /* I =126 */
(PID.TID 0000.0001)                 3.557812500000000E+02,      /* I =127 */
(PID.TID 0000.0001)                 3.585937500000000E+02       /* I =128 */
(PID.TID 0000.0001)     ;
(PID.TID 0000.0001) yC =  /* yC(1,:,1,:) : P-point Y coord ( deg. or m if cartesian) */
(PID.TID 0000.0001)                -8.859375000000000E+01,      /* J =  1 */
(PID.TID 0000.0001)                -8.578125000000000E+01,      /* J =  2 */
(PID.TID 0000.0001)                -8.296875000000000E+01,      /* J =  3 */
(PID.TID 0000.0001)                -8.015625000000000E+01,      /* J =  4 */
(PID.TID 0000.0001)                -7.734375000000000E+01,      /* J =  5 */
(PID.TID 0000.0001)                -7.453125000000000E+01,      /* J =  6 */
(PID.TID 0000.0001)                -7.171875000000000E+01,      /* J =  7 */
(PID.TID 0000.0001)                -6.890625000000000E+01,      /* J =  8 */
(PID.TID 0000.0001)                -6.609375000000000E+01,      /* J =  9 */
(PID.TID 0000.0001)                -6.328125000000000E+01,      /* J = 10 */
(PID.TID 0000.0001)                -6.046875000000000E+01,      /* J = 11 */
(PID.TID 0000.0001)                -5.765625000000000E+01,      /* J = 12 */
(PID.TID 0000.0001)                -5.484375000000000E+01,      /* J = 13 */
(PID.TID 0000.0001)                -5.203125000000000E+01,      /* J = 14 */
(PID.TID 0000.0001)                -4.921875000000000E+01,      /* J = 15 */
(PID.TID 0000.0001)                -4.640625000000000E+01,      /* J = 16 */
(PID.TID 0000.0001)                -4.359375000000000E+01,      /* J = 17 */
(PID.TID 0000.0001)                -4.078125000000000E+01,      /* J = 18 */
(PID.TID 0000.0001)                -3.796875000000000E+01,      /* J = 19 */
(PID.TID 0000.0001)                -3.515625000000000E+01,      /* J = 20 */
(PID.TID 0000.0001)                -3.234375000000000E+01,      /* J = 21 */
(PID.TID 0000.0001)                -2.953125000000000E+01,      /* J = 22 */
(PID.TID 0000.0001)                -2.671875000000000E+01,      /* J = 23 */
(PID.TID 0000.0001)                -2.390625000000000E+01,      /* J = 24 */
(PID.TID 0000.0001)                -2.109375000000000E+01,      /* J = 25 */
(PID.TID 0000.0001)                -1.828125000000000E+01,      /* J = 26 */
(PID.TID 0000.0001)                -1.546875000000000E+01,      /* J = 27 */
(PID.TID 0000.0001)                -1.265625000000000E+01,      /* J = 28 */
(PID.TID 0000.0001)                -9.843750000000000E+00,      /* J = 29 */
(PID.TID 0000.0001)                -7.031250000000000E+00,      /* J = 30 */
(PID.TID 0000.0001)                -4.218750000000000E+00,      /* J = 31 */
(PID.TID 0000.0001)                -1.406250000000000E+00,      /* J = 32 */
(PID.TID 0000.0001)                 1.406250000000000E+00,      /* J = 33 */
(PID.TID 0000.0001)                 4.218750000000000E+00,      /* J = 34 */
(PID.TID 0000.0001)                 7.031250000000000E+00,      /* J = 35 */
(PID.TID 0000.0001)                 9.843750000000000E+00,      /* J = 36 */
(PID.TID 0000.0001)                 1.265625000000000E+01,      /* J = 37 */
(PID.TID 0000.0001)                 1.546875000000000E+01,      /* J = 38 */
(PID.TID 0000.0001)                 1.828125000000000E+01,      /* J = 39 */
(PID.TID 0000.0001)                 2.109375000000000E+01,      /* J = 40 */
(PID.TID 0000.0001)                 2.390625000000000E+01,      /* J = 41 */
(PID.TID 0000.0001)                 2.671875000000000E+01,      /* J = 42 */
(PID.TID 0000.0001)                 2.953125000000000E+01,      /* J = 43 */
(PID.TID 0000.0001)                 3.234375000000000E+01,      /* J = 44 */
(PID.TID 0000.0001)                 3.515625000000000E+01,      /* J = 45 */
(PID.TID 0000.0001)                 3.796875000000000E+01,      /* J = 46 */
(PID.TID 0000.0001)                 4.078125000000000E+01,      /* J = 47 */
(PID.TID 0000.0001)                 4.359375000000000E+01,      /* J = 48 */
(PID.TID 0000.0001)                 4.640625000000000E+01,      /* J = 49 */
(PID.TID 0000.0001)                 4.921875000000000E+01,      /* J = 50 */
(PID.TID 0000.0001)                 5.203125000000000E+01,      /* J = 51 */
(PID.TID 0000.0001)                 5.484375000000000E+01,      /* J = 52 */
(PID.TID 0000.0001)                 5.765625000000000E+01,      /* J = 53 */
(PID.TID 0000.0001)                 6.046875000000000E+01,      /* J = 54 */
(PID.TID 0000.0001)                 6.328125000000000E+01,      /* J = 55 */
(PID.TID 0000.0001)                 6.609375000000000E+01,      /* J = 56 */
(PID.TID 0000.0001)                 6.890625000000000E+01,      /* J = 57 */
(PID.TID 0000.0001)                 7.171875000000000E+01,      /* J = 58 */
(PID.TID 0000.0001)                 7.453125000000000E+01,      /* J = 59 */
(PID.TID 0000.0001)                 7.734375000000000E+01,      /* J = 60 */
(PID.TID 0000.0001)                 8.015625000000000E+01,      /* J = 61 */
(PID.TID 0000.0001)                 8.296875000000000E+01,      /* J = 62 */
(PID.TID 0000.0001)                 8.578125000000000E+01,      /* J = 63 */
(PID.TID 0000.0001)                 8.859375000000000E+01       /* J = 64 */
(PID.TID 0000.0001)     ;
(PID.TID 0000.0001) rcoord = /* P-point R coordinate (  units of r ) */
(PID.TID 0000.0001)                -2.500000000000000E+01,      /* K =  1 */
(PID.TID 0000.0001)                -8.500000000000000E+01,      /* K =  2 */
(PID.TID 0000.0001)                -1.700000000000000E+02,      /* K =  3 */
(PID.TID 0000.0001)                -2.900000000000000E+02,      /* K =  4 */
(PID.TID 0000.0001)                -4.550000000000000E+02,      /* K =  5 */
(PID.TID 0000.0001)                -6.700000000000000E+02,      /* K =  6 */
(PID.TID 0000.0001)                -9.350000000000000E+02,      /* K =  7 */
(PID.TID 0000.0001)                -1.250000000000000E+03,      /* K =  8 */
(PID.TID 0000.0001)                -1.615000000000000E+03,      /* K =  9 */
(PID.TID 0000.0001)                -2.030000000000000E+03,      /* K = 10 */
(PID.TID 0000.0001)                -2.495000000000000E+03,      /* K = 11 */
(PID.TID 0000.0001)                -3.010000000000000E+03,      /* K = 12 */
(PID.TID 0000.0001)                -3.575000000000000E+03,      /* K = 13 */
(PID.TID 0000.0001)                -4.190000000000000E+03,      /* K = 14 */
(PID.TID 0000.0001)                -4.855000000000000E+03       /* K = 15 */
(PID.TID 0000.0001)     ;
(PID.TID 0000.0001) rF =   /* W-Interf. R coordinate (  units of r ) */
(PID.TID 0000.0001)                 0.000000000000000E+00,      /* K =  1 */
(PID.TID 0000.0001)                -5.000000000000000E+01,      /* K =  2 */
(PID.TID 0000.0001)                -1.200000000000000E+02,      /* K =  3 */
(PID.TID 0000.0001)                -2.200000000000000E+02,      /* K =  4 */
(PID.TID 0000.0001)                -3.600000000000000E+02,      /* K =  5 */
(PID.TID 0000.0001)                -5.500000000000000E+02,      /* K =  6 */
(PID.TID 0000.0001)                -7.900000000000000E+02,      /* K =  7 */
(PID.TID 0000.0001)                -1.080000000000000E+03,      /* K =  8 */
(PID.TID 0000.0001)                -1.420000000000000E+03,      /* K =  9 */
(PID.TID 0000.0001)                -1.810000000000000E+03,      /* K = 10 */
(PID.TID 0000.0001)                -2.250000000000000E+03,      /* K = 11 */
(PID.TID 0000.0001)                -2.740000000000000E+03,      /* K = 12 */
(PID.TID 0000.0001)                -3.280000000000000E+03,      /* K = 13 */
(PID.TID 0000.0001)                -3.870000000000000E+03,      /* K = 14 */
(PID.TID 0000.0001)                -4.510000000000000E+03,      /* K = 15 */
(PID.TID 0000.0001)                -5.200000000000000E+03       /* K = 16 */
(PID.TID 0000.0001)     ;
(PID.TID 0000.0001) deepFacC = /* deep-model grid factor @ cell-Center (-) */
(PID.TID 0000.0001)    15 @  1.000000000000000E+00              /* K =  1: 15 */
(PID.TID 0000.0001)     ;
(PID.TID 0000.0001) deepFacF = /* deep-model grid factor @ W-Interface (-) */
(PID.TID 0000.0001)    16 @  1.000000000000000E+00              /* K =  1: 16 */
(PID.TID 0000.0001)     ;
(PID.TID 0000.0001) rVel2wUnit = /* convert units: rVel -> wSpeed (=1 if z-coord)*/
(PID.TID 0000.0001)    16 @  1.000000000000000E+00              /* K =  1: 16 */
(PID.TID 0000.0001)     ;
(PID.TID 0000.0001) wUnit2rVel = /* convert units: wSpeed -> rVel (=1 if z-coord)*/
(PID.TID 0000.0001)    16 @  1.000000000000000E+00              /* K =  1: 16 */
(PID.TID 0000.0001)     ;
(PID.TID 0000.0001) dBdrRef = /* Vertical grad. of reference buoyancy [(m/s/r)^2] */
(PID.TID 0000.0001)    15 @  0.000000000000000E+00              /* K =  1: 15 */
(PID.TID 0000.0001)     ;
(PID.TID 0000.0001) rotateGrid = /* use rotated grid ( True/False ) */
(PID.TID 0000.0001)                   F
(PID.TID 0000.0001)     ;
(PID.TID 0000.0001) phiEuler = /* Euler angle, rotation about original z-coordinate [rad] */
(PID.TID 0000.0001)                 0.000000000000000E+00
(PID.TID 0000.0001)     ;
(PID.TID 0000.0001) thetaEuler = /* Euler angle, rotation about new x-coordinate [rad] */
(PID.TID 0000.0001)                 0.000000000000000E+00
(PID.TID 0000.0001)     ;
(PID.TID 0000.0001) psiEuler = /* Euler angle, rotation about new z-coordinate [rad] */
(PID.TID 0000.0001)                 0.000000000000000E+00
(PID.TID 0000.0001)     ;
(PID.TID 0000.0001) dxF =  /* dxF(:,1,:,1) ( units: m ) */
(PID.TID 0000.0001)   128 @  7.673714381622299E+03              /* I =  1:128 */
(PID.TID 0000.0001)     ;
(PID.TID 0000.0001) dxF =  /* dxF(1,:,1,:) ( units: m ) */
(PID.TID 0000.0001)                 7.673714381622299E+03,      /* J =  1 */
(PID.TID 0000.0001)                 2.300265649478360E+04,      /* J =  2 */
(PID.TID 0000.0001)                 3.827618319365421E+04,      /* J =  3 */
(PID.TID 0000.0001)                 5.345749921461356E+04,      /* J =  4 */
(PID.TID 0000.0001)                 6.851003143764105E+04,      /* J =  5 */
(PID.TID 0000.0001)                 8.339751699416524E+04,      /* J =  6 */
(PID.TID 0000.0001)                 9.808409062749070E+04,      /* J =  7 */
(PID.TID 0000.0001)                 1.125343710953429E+05,      /* J =  8 */
(PID.TID 0000.0001)                 1.267135464063795E+05,      /* J =  9 */
(PID.TID 0000.0001)                 1.405874576853274E+05,      /* J = 10 */
(PID.TID 0000.0001)                 1.541226814647045E+05,      /* J = 11 */
(PID.TID 0000.0001)                 1.672866102048804E+05,      /* J = 12 */
(PID.TID 0000.0001)                 1.800475308484964E+05,      /* J = 13 */
(PID.TID 0000.0001)                 1.923747012199971E+05,      /* J = 14 */
(PID.TID 0000.0001)                 2.042384240862251E+05,      /* J = 15 */
(PID.TID 0000.0001)                 2.156101186996563E+05,      /* J = 16 */
(PID.TID 0000.0001)                 2.264623896519241E+05,      /* J = 17 */
(PID.TID 0000.0001)                 2.367690928717577E+05,      /* J = 18 */
(PID.TID 0000.0001)                 2.465053986083400E+05,      /* J = 19 */
(PID.TID 0000.0001)                 2.556478512483520E+05,      /* J = 20 */
(PID.TID 0000.0001)                 2.641744258225996E+05,      /* J = 21 */
(PID.TID 0000.0001)                 2.720645810660936E+05,      /* J = 22 */
(PID.TID 0000.0001)                 2.792993089037565E+05,      /* J = 23 */
(PID.TID 0000.0001)                 2.858611802425402E+05,      /* J = 24 */
(PID.TID 0000.0001)                 2.917343869596373E+05,      /* J = 25 */
(PID.TID 0000.0001)                 2.969047799856344E+05,      /* J = 26 */
(PID.TID 0000.0001)                 3.013599033908587E+05,      /* J = 27 */
(PID.TID 0000.0001)                 3.050890243928043E+05,      /* J = 28 */
(PID.TID 0000.0001)                 3.080831592123453E+05,      /* J = 29 */
(PID.TID 0000.0001)                 3.103350947164461E+05,      /* J = 30 */
(PID.TID 0000.0001)                 3.118394057952309E+05,      /* J = 31 */
(PID.TID 0000.0001)     2 @  3.125924684315491E+05,             /* J = 32: 33 */
(PID.TID 0000.0001)                 3.118394057952309E+05,      /* J = 34 */
(PID.TID 0000.0001)                 3.103350947164461E+05,      /* J = 35 */
(PID.TID 0000.0001)                 3.080831592123453E+05,      /* J = 36 */
(PID.TID 0000.0001)                 3.050890243928043E+05,      /* J = 37 */
(PID.TID 0000.0001)                 3.013599033908587E+05,      /* J = 38 */
(PID.TID 0000.0001)                 2.969047799856344E+05,      /* J = 39 */
(PID.TID 0000.0001)                 2.917343869596373E+05,      /* J = 40 */
(PID.TID 0000.0001)                 2.858611802425402E+05,      /* J = 41 */
(PID.TID 0000.0001)                 2.792993089037565E+05,      /* J = 42 */
(PID.TID 0000.0001)                 2.720645810660936E+05,      /* J = 43 */
(PID.TID 0000.0001)                 2.641744258225996E+05,      /* J = 44 */
(PID.TID 0000.0001)                 2.556478512483520E+05,      /* J = 45 */
(PID.TID 0000.0001)                 2.465053986083400E+05,      /* J = 46 */
(PID.TID 0000.0001)                 2.367690928717577E+05,      /* J = 47 */
(PID.TID 0000.0001)                 2.264623896519241E+05,      /* J = 48 */
(PID.TID 0000.0001)                 2.156101186996563E+05,      /* J = 49 */
(PID.TID 0000.0001)                 2.042384240862251E+05,      /* J = 50 */
(PID.TID 0000.0001)                 1.923747012199971E+05,      /* J = 51 */
(PID.TID 0000.0001)                 1.800475308484964E+05,      /* J = 52 */
(PID.TID 0000.0001)                 1.672866102048804E+05,      /* J = 53 */
(PID.TID 0000.0001)                 1.541226814647045E+05,      /* J = 54 */
(PID.TID 0000.0001)                 1.405874576853274E+05,      /* J = 55 */
(PID.TID 0000.0001)                 1.267135464063795E+05,      /* J = 56 */
(PID.TID 0000.0001)                 1.125343710953429E+05,      /* J = 57 */
(PID.TID 0000.0001)                 9.808409062749070E+04,      /* J = 58 */
(PID.TID 0000.0001)                 8.339751699416524E+04,      /* J = 59 */
(PID.TID 0000.0001)                 6.851003143764105E+04,      /* J = 60 */
(PID.TID 0000.0001)                 5.345749921461356E+04,      /* J = 61 */
(PID.TID 0000.0001)                 3.827618319365421E+04,      /* J = 62 */
(PID.TID 0000.0001)                 2.300265649478360E+04,      /* J = 63 */
(PID.TID 0000.0001)                 7.673714381622299E+03       /* J = 64 */
(PID.TID 0000.0001)     ;
(PID.TID 0000.0001) dyF =  /* dyF(:,1,:,1) ( units: m ) */
(PID.TID 0000.0001)   128 @  3.126866438026091E+05              /* I =  1:128 */
(PID.TID 0000.0001)     ;
(PID.TID 0000.0001) dyF =  /* dyF(1,:,1,:) ( units: m ) */
(PID.TID 0000.0001)    64 @  3.126866438026091E+05              /* J =  1: 64 */
(PID.TID 0000.0001)     ;
(PID.TID 0000.0001) dxG =  /* dxG(:,1,:,1) ( units: m ) */
(PID.TID 0000.0001)   128 @  0.000000000000000E+00              /* I =  1:128 */
(PID.TID 0000.0001)     ;
(PID.TID 0000.0001) dxG =  /* dxG(1,:,1,:) ( units: m ) */
(PID.TID 0000.0001)                 0.000000000000000E+00,      /* J =  1 */
(PID.TID 0000.0001)                 1.534280640463982E+04,      /* J =  2 */
(PID.TID 0000.0001)                 3.064865064477965E+04,      /* J =  3 */
(PID.TID 0000.0001)                 4.588065960101153E+04,      /* J =  4 */
(PID.TID 0000.0001)                 6.100213802959342E+04,      /* J =  5 */
(PID.TID 0000.0001)                 7.597665696450579E+04,      /* J =  6 */
(PID.TID 0000.0001)                 9.076814147802141E+04,      /* J =  7 */
(PID.TID 0000.0001)                 1.053409575883663E+05,      /* J =  8 */
(PID.TID 0000.0001)                 1.196599981051027E+05,      /* J =  9 */
(PID.TID 0000.0001)                 1.336907672054259E+05,      /* J = 10 */
(PID.TID 0000.0001)                 1.473994635376230E+05,      /* J = 11 */
(PID.TID 0000.0001)                 1.607530616514898E+05,      /* J = 12 */
(PID.TID 0000.0001)                 1.737193915595329E+05,      /* J = 13 */
(PID.TID 0000.0001)                 1.862672162372875E+05,      /* J = 14 */
(PID.TID 0000.0001)                 1.983663068760452E+05,      /* J = 15 */
(PID.TID 0000.0001)                 2.099875157067021E+05,      /* J = 16 */
(PID.TID 0000.0001)                 2.211028462192875E+05,      /* J = 17 */
(PID.TID 0000.0001)                 2.316855206090085E+05,      /* J = 18 */
(PID.TID 0000.0001)                 2.417100442863276E+05,      /* J = 19 */
(PID.TID 0000.0001)                 2.511522672956614E+05,      /* J = 20 */
(PID.TID 0000.0001)                 2.599894424947394E+05,      /* J = 21 */
(PID.TID 0000.0001)                 2.682002803544621E+05,      /* J = 22 */
(PID.TID 0000.0001)                 2.757650002472408E+05,      /* J = 23 */
(PID.TID 0000.0001)                 2.826653781002625E+05,      /* J = 24 */
(PID.TID 0000.0001)                 2.888847902988777E+05,      /* J = 25 */
(PID.TID 0000.0001)                 2.944082537343438E+05,      /* J = 26 */
(PID.TID 0000.0001)                 2.992224618994463E+05,      /* J = 27 */
(PID.TID 0000.0001)                 3.033158169450409E+05,      /* J = 28 */
(PID.TID 0000.0001)                 3.066784576202870E+05,      /* J = 29 */
(PID.TID 0000.0001)                 3.093022830292655E+05,      /* J = 30 */
(PID.TID 0000.0001)                 3.111809721467461E+05,      /* J = 31 */
(PID.TID 0000.0001)                 3.123099990460912E+05,      /* J = 32 */
(PID.TID 0000.0001)                 3.126866438026091E+05,      /* J = 33 */
(PID.TID 0000.0001)                 3.123099990460912E+05,      /* J = 34 */
(PID.TID 0000.0001)                 3.111809721467461E+05,      /* J = 35 */
(PID.TID 0000.0001)                 3.093022830292655E+05,      /* J = 36 */
(PID.TID 0000.0001)                 3.066784576202870E+05,      /* J = 37 */
(PID.TID 0000.0001)                 3.033158169450409E+05,      /* J = 38 */
(PID.TID 0000.0001)                 2.992224618994463E+05,      /* J = 39 */
(PID.TID 0000.0001)                 2.944082537343438E+05,      /* J = 40 */
(PID.TID 0000.0001)                 2.888847902988777E+05,      /* J = 41 */
(PID.TID 0000.0001)                 2.826653781002625E+05,      /* J = 42 */
(PID.TID 0000.0001)                 2.757650002472408E+05,      /* J = 43 */
(PID.TID 0000.0001)                 2.682002803544621E+05,      /* J = 44 */
(PID.TID 0000.0001)                 2.599894424947394E+05,      /* J = 45 */
(PID.TID 0000.0001)                 2.511522672956614E+05,      /* J = 46 */
(PID.TID 0000.0001)                 2.417100442863276E+05,      /* J = 47 */
(PID.TID 0000.0001)                 2.316855206090085E+05,      /* J = 48 */
(PID.TID 0000.0001)                 2.211028462192875E+05,      /* J = 49 */
(PID.TID 0000.0001)                 2.099875157067021E+05,      /* J = 50 */
(PID.TID 0000.0001)                 1.983663068760452E+05,      /* J = 51 */
(PID.TID 0000.0001)                 1.862672162372875E+05,      /* J = 52 */
(PID.TID 0000.0001)                 1.737193915595329E+05,      /* J = 53 */
(PID.TID 0000.0001)                 1.607530616514898E+05,      /* J = 54 */
(PID.TID 0000.0001)                 1.473994635376230E+05,      /* J = 55 */
(PID.TID 0000.0001)                 1.336907672054259E+05,      /* J = 56 */
(PID.TID 0000.0001)                 1.196599981051027E+05,      /* J = 57 */
(PID.TID 0000.0001)                 1.053409575883663E+05,      /* J = 58 */
(PID.TID 0000.0001)                 9.076814147802141E+04,      /* J = 59 */
(PID.TID 0000.0001)                 7.597665696450579E+04,      /* J = 60 */
(PID.TID 0000.0001)                 6.100213802959342E+04,      /* J = 61 */
(PID.TID 0000.0001)                 4.588065960101153E+04,      /* J = 62 */
(PID.TID 0000.0001)                 3.064865064477965E+04,      /* J = 63 */
(PID.TID 0000.0001)                 1.534280640463982E+04       /* J = 64 */
(PID.TID 0000.0001)     ;
(PID.TID 0000.0001) dyG =  /* dyG(:,1,:,1) ( units: m ) */
(PID.TID 0000.0001)   128 @  3.126866438026091E+05              /* I =  1:128 */
(PID.TID 0000.0001)     ;
(PID.TID 0000.0001) dyG =  /* dyG(1,:,1,:) ( units: m ) */
(PID.TID 0000.0001)    64 @  3.126866438026091E+05              /* J =  1: 64 */
(PID.TID 0000.0001)     ;
(PID.TID 0000.0001) dxC =  /* dxC(:,1,:,1) ( units: m ) */
(PID.TID 0000.0001)   128 @  7.673714381622299E+03              /* I =  1:128 */
(PID.TID 0000.0001)     ;
(PID.TID 0000.0001) dxC =  /* dxC(1,:,1,:) ( units: m ) */
(PID.TID 0000.0001)                 7.673714381622299E+03,      /* J =  1 */
(PID.TID 0000.0001)                 2.300265649478360E+04,      /* J =  2 */
(PID.TID 0000.0001)                 3.827618319365421E+04,      /* J =  3 */
(PID.TID 0000.0001)                 5.345749921461356E+04,      /* J =  4 */
(PID.TID 0000.0001)                 6.851003143764105E+04,      /* J =  5 */
(PID.TID 0000.0001)                 8.339751699416524E+04,      /* J =  6 */
(PID.TID 0000.0001)                 9.808409062749070E+04,      /* J =  7 */
(PID.TID 0000.0001)                 1.125343710953429E+05,      /* J =  8 */
(PID.TID 0000.0001)                 1.267135464063795E+05,      /* J =  9 */
(PID.TID 0000.0001)                 1.405874576853274E+05,      /* J = 10 */
(PID.TID 0000.0001)                 1.541226814647045E+05,      /* J = 11 */
(PID.TID 0000.0001)                 1.672866102048804E+05,      /* J = 12 */
(PID.TID 0000.0001)                 1.800475308484964E+05,      /* J = 13 */
(PID.TID 0000.0001)                 1.923747012199971E+05,      /* J = 14 */
(PID.TID 0000.0001)                 2.042384240862251E+05,      /* J = 15 */
(PID.TID 0000.0001)                 2.156101186996563E+05,      /* J = 16 */
(PID.TID 0000.0001)                 2.264623896519241E+05,      /* J = 17 */
(PID.TID 0000.0001)                 2.367690928717577E+05,      /* J = 18 */
(PID.TID 0000.0001)                 2.465053986083400E+05,      /* J = 19 */
(PID.TID 0000.0001)                 2.556478512483520E+05,      /* J = 20 */
(PID.TID 0000.0001)                 2.641744258225996E+05,      /* J = 21 */
(PID.TID 0000.0001)                 2.720645810660936E+05,      /* J = 22 */
(PID.TID 0000.0001)                 2.792993089037565E+05,      /* J = 23 */
(PID.TID 0000.0001)                 2.858611802425402E+05,      /* J = 24 */
(PID.TID 0000.0001)                 2.917343869596373E+05,      /* J = 25 */
(PID.TID 0000.0001)                 2.969047799856344E+05,      /* J = 26 */
(PID.TID 0000.0001)                 3.013599033908587E+05,      /* J = 27 */
(PID.TID 0000.0001)                 3.050890243928043E+05,      /* J = 28 */
(PID.TID 0000.0001)                 3.080831592123453E+05,      /* J = 29 */
(PID.TID 0000.0001)                 3.103350947164461E+05,      /* J = 30 */
(PID.TID 0000.0001)                 3.118394057952309E+05,      /* J = 31 */
(PID.TID 0000.0001)     2 @  3.125924684315491E+05,             /* J = 32: 33 */
(PID.TID 0000.0001)                 3.118394057952309E+05,      /* J = 34 */
(PID.TID 0000.0001)                 3.103350947164461E+05,      /* J = 35 */
(PID.TID 0000.0001)                 3.080831592123453E+05,      /* J = 36 */
(PID.TID 0000.0001)                 3.050890243928043E+05,      /* J = 37 */
(PID.TID 0000.0001)                 3.013599033908587E+05,      /* J = 38 */
(PID.TID 0000.0001)                 2.969047799856344E+05,      /* J = 39 */
(PID.TID 0000.0001)                 2.917343869596373E+05,      /* J = 40 */
(PID.TID 0000.0001)                 2.858611802425402E+05,      /* J = 41 */
(PID.TID 0000.0001)                 2.792993089037565E+05,      /* J = 42 */
(PID.TID 0000.0001)                 2.720645810660936E+05,      /* J = 43 */
(PID.TID 0000.0001)                 2.641744258225996E+05,      /* J = 44 */
(PID.TID 0000.0001)                 2.556478512483520E+05,      /* J = 45 */
(PID.TID 0000.0001)                 2.465053986083400E+05,      /* J = 46 */
(PID.TID 0000.0001)                 2.367690928717577E+05,      /* J = 47 */
(PID.TID 0000.0001)                 2.264623896519241E+05,      /* J = 48 */
(PID.TID 0000.0001)                 2.156101186996563E+05,      /* J = 49 */
(PID.TID 0000.0001)                 2.042384240862251E+05,      /* J = 50 */
(PID.TID 0000.0001)                 1.923747012199971E+05,      /* J = 51 */
(PID.TID 0000.0001)                 1.800475308484964E+05,      /* J = 52 */
(PID.TID 0000.0001)                 1.672866102048804E+05,      /* J = 53 */
(PID.TID 0000.0001)                 1.541226814647045E+05,      /* J = 54 */
(PID.TID 0000.0001)                 1.405874576853274E+05,      /* J = 55 */
(PID.TID 0000.0001)                 1.267135464063795E+05,      /* J = 56 */
(PID.TID 0000.0001)                 1.125343710953429E+05,      /* J = 57 */
(PID.TID 0000.0001)                 9.808409062749070E+04,      /* J = 58 */
(PID.TID 0000.0001)                 8.339751699416524E+04,      /* J = 59 */
(PID.TID 0000.0001)                 6.851003143764105E+04,      /* J = 60 */
(PID.TID 0000.0001)                 5.345749921461356E+04,      /* J = 61 */
(PID.TID 0000.0001)                 3.827618319365421E+04,      /* J = 62 */
(PID.TID 0000.0001)                 2.300265649478360E+04,      /* J = 63 */
(PID.TID 0000.0001)                 7.673714381622299E+03       /* J = 64 */
(PID.TID 0000.0001)     ;
(PID.TID 0000.0001) dyC =  /* dyC(:,1,:,1) ( units: m ) */
(PID.TID 0000.0001)   128 @  3.126866438026091E+05              /* I =  1:128 */
(PID.TID 0000.0001)     ;
(PID.TID 0000.0001) dyC =  /* dyC(1,:,1,:) ( units: m ) */
(PID.TID 0000.0001)    64 @  3.126866438026091E+05              /* J =  1: 64 */
(PID.TID 0000.0001)     ;
(PID.TID 0000.0001) dxV =  /* dxV(:,1,:,1) ( units: m ) */
(PID.TID 0000.0001)   128 @  0.000000000000000E+00              /* I =  1:128 */
(PID.TID 0000.0001)     ;
(PID.TID 0000.0001) dxV =  /* dxV(1,:,1,:) ( units: m ) */
(PID.TID 0000.0001)                 0.000000000000000E+00,      /* J =  1 */
(PID.TID 0000.0001)                 1.534280640463982E+04,      /* J =  2 */
(PID.TID 0000.0001)                 3.064865064477965E+04,      /* J =  3 */
(PID.TID 0000.0001)                 4.588065960101153E+04,      /* J =  4 */
(PID.TID 0000.0001)                 6.100213802959342E+04,      /* J =  5 */
(PID.TID 0000.0001)                 7.597665696450579E+04,      /* J =  6 */
(PID.TID 0000.0001)                 9.076814147802141E+04,      /* J =  7 */
(PID.TID 0000.0001)                 1.053409575883663E+05,      /* J =  8 */
(PID.TID 0000.0001)                 1.196599981051027E+05,      /* J =  9 */
(PID.TID 0000.0001)                 1.336907672054259E+05,      /* J = 10 */
(PID.TID 0000.0001)                 1.473994635376230E+05,      /* J = 11 */
(PID.TID 0000.0001)                 1.607530616514898E+05,      /* J = 12 */
(PID.TID 0000.0001)                 1.737193915595329E+05,      /* J = 13 */
(PID.TID 0000.0001)                 1.862672162372875E+05,      /* J = 14 */
(PID.TID 0000.0001)                 1.983663068760452E+05,      /* J = 15 */
(PID.TID 0000.0001)                 2.099875157067021E+05,      /* J = 16 */
(PID.TID 0000.0001)                 2.211028462192875E+05,      /* J = 17 */
(PID.TID 0000.0001)                 2.316855206090085E+05,      /* J = 18 */
(PID.TID 0000.0001)                 2.417100442863276E+05,      /* J = 19 */
(PID.TID 0000.0001)                 2.511522672956614E+05,      /* J = 20 */
(PID.TID 0000.0001)                 2.599894424947394E+05,      /* J = 21 */
(PID.TID 0000.0001)                 2.682002803544621E+05,      /* J = 22 */
(PID.TID 0000.0001)                 2.757650002472408E+05,      /* J = 23 */
(PID.TID 0000.0001)                 2.826653781002625E+05,      /* J = 24 */
(PID.TID 0000.0001)                 2.888847902988777E+05,      /* J = 25 */
(PID.TID 0000.0001)                 2.944082537343438E+05,      /* J = 26 */
(PID.TID 0000.0001)                 2.992224618994463E+05,      /* J = 27 */
(PID.TID 0000.0001)                 3.033158169450409E+05,      /* J = 28 */
(PID.TID 0000.0001)                 3.066784576202870E+05,      /* J = 29 */
(PID.TID 0000.0001)                 3.093022830292655E+05,      /* J = 30 */
(PID.TID 0000.0001)                 3.111809721467461E+05,      /* J = 31 */
(PID.TID 0000.0001)                 3.123099990460912E+05,      /* J = 32 */
(PID.TID 0000.0001)                 3.126866438026091E+05,      /* J = 33 */
(PID.TID 0000.0001)                 3.123099990460912E+05,      /* J = 34 */
(PID.TID 0000.0001)                 3.111809721467461E+05,      /* J = 35 */
(PID.TID 0000.0001)                 3.093022830292655E+05,      /* J = 36 */
(PID.TID 0000.0001)                 3.066784576202870E+05,      /* J = 37 */
(PID.TID 0000.0001)                 3.033158169450409E+05,      /* J = 38 */
(PID.TID 0000.0001)                 2.992224618994463E+05,      /* J = 39 */
(PID.TID 0000.0001)                 2.944082537343438E+05,      /* J = 40 */
(PID.TID 0000.0001)                 2.888847902988777E+05,      /* J = 41 */
(PID.TID 0000.0001)                 2.826653781002625E+05,      /* J = 42 */
(PID.TID 0000.0001)                 2.757650002472408E+05,      /* J = 43 */
(PID.TID 0000.0001)                 2.682002803544621E+05,      /* J = 44 */
(PID.TID 0000.0001)                 2.599894424947394E+05,      /* J = 45 */
(PID.TID 0000.0001)                 2.511522672956614E+05,      /* J = 46 */
(PID.TID 0000.0001)                 2.417100442863276E+05,      /* J = 47 */
(PID.TID 0000.0001)                 2.316855206090085E+05,      /* J = 48 */
(PID.TID 0000.0001)                 2.211028462192875E+05,      /* J = 49 */
(PID.TID 0000.0001)                 2.099875157067021E+05,      /* J = 50 */
(PID.TID 0000.0001)                 1.983663068760452E+05,      /* J = 51 */
(PID.TID 0000.0001)                 1.862672162372875E+05,      /* J = 52 */
(PID.TID 0000.0001)                 1.737193915595329E+05,      /* J = 53 */
(PID.TID 0000.0001)                 1.607530616514898E+05,      /* J = 54 */
(PID.TID 0000.0001)                 1.473994635376230E+05,      /* J = 55 */
(PID.TID 0000.0001)                 1.336907672054259E+05,      /* J = 56 */
(PID.TID 0000.0001)                 1.196599981051027E+05,      /* J = 57 */
(PID.TID 0000.0001)                 1.053409575883663E+05,      /* J = 58 */
(PID.TID 0000.0001)                 9.076814147802141E+04,      /* J = 59 */
(PID.TID 0000.0001)                 7.597665696450579E+04,      /* J = 60 */
(PID.TID 0000.0001)                 6.100213802959342E+04,      /* J = 61 */
(PID.TID 0000.0001)                 4.588065960101153E+04,      /* J = 62 */
(PID.TID 0000.0001)                 3.064865064477965E+04,      /* J = 63 */
(PID.TID 0000.0001)                 1.534280640463982E+04       /* J = 64 */
(PID.TID 0000.0001)     ;
(PID.TID 0000.0001) dyU =  /* dyU(:,1,:,1) ( units: m ) */
(PID.TID 0000.0001)   128 @  3.126866438026091E+05              /* I =  1:128 */
(PID.TID 0000.0001)     ;
(PID.TID 0000.0001) dyU =  /* dyU(1,:,1,:) ( units: m ) */
(PID.TID 0000.0001)    64 @  3.126866438026091E+05              /* J =  1: 64 */
(PID.TID 0000.0001)     ;
(PID.TID 0000.0001) rA  =  /* rA (:,1,:,1) ( units: m^2 ) */
(PID.TID 0000.0001)   128 @  2.399227099019018E+09              /* I =  1:128 */
(PID.TID 0000.0001)     ;
(PID.TID 0000.0001) rA  =  /* rA (1,:,1,:) ( units: m^2 ) */
(PID.TID 0000.0001)                 2.399227099019018E+09,      /* J =  1 */
(PID.TID 0000.0001)                 7.191901348828056E+09,      /* J =  2 */
(PID.TID 0000.0001)                 1.196724967835171E+10,      /* J =  3 */
(PID.TID 0000.0001)                 1.671376785519299E+10,      /* J =  4 */
(PID.TID 0000.0001)                 2.142002110131771E+10,      /* J =  5 */
(PID.TID 0000.0001)                 2.607467164043704E+10,      /* J =  6 */
(PID.TID 0000.0001)                 3.066650601170349E+10,      /* J =  7 */
(PID.TID 0000.0001)                 3.518446208391881E+10,      /* J =  8 */
(PID.TID 0000.0001)                 3.961765570517892E+10,      /* J =  9 */
(PID.TID 0000.0001)                 4.395540692374860E+10,      /* J = 10 */
(PID.TID 0000.0001)                 4.818726571700000E+10,      /* J = 11 */
(PID.TID 0000.0001)                 5.230303716643333E+10,      /* J = 12 */
(PID.TID 0000.0001)                 5.629280601812741E+10,      /* J = 13 */
(PID.TID 0000.0001)                 6.014696056945659E+10,      /* J = 14 */
(PID.TID 0000.0001)                 6.385621582452237E+10,      /* J = 15 */
(PID.TID 0000.0001)                 6.741163586252303E+10,      /* J = 16 */
(PID.TID 0000.0001)                 7.080465536516846E+10,      /* J = 17 */
(PID.TID 0000.0001)                 7.402710025128452E+10,      /* J = 18 */
(PID.TID 0000.0001)                 7.707120736888658E+10,      /* J = 19 */
(PID.TID 0000.0001)                 7.992964319729683E+10,      /* J = 20 */
(PID.TID 0000.0001)                 8.259552151423444E+10,      /* J = 21 */
(PID.TID 0000.0001)                 8.506241998533159E+10,      /* J = 22 */
(PID.TID 0000.0001)                 8.732439563609566E+10,      /* J = 23 */
(PID.TID 0000.0001)                 8.937599916905872E+10,      /* J = 24 */
(PID.TID 0000.0001)                 9.121228809161066E+10,      /* J = 25 */
(PID.TID 0000.0001)                 9.282883862289705E+10,      /* J = 26 */
(PID.TID 0000.0001)                 9.422175635109474E+10,      /* J = 27 */
(PID.TID 0000.0001)                 9.538768561539165E+10,      /* J = 28 */
(PID.TID 0000.0001)                 9.632381759006650E+10,      /* J = 29 */
(PID.TID 0000.0001)                 9.702789705119698E+10,      /* J = 30 */
(PID.TID 0000.0001)                 9.749822780969106E+10,      /* J = 31 */
(PID.TID 0000.0001)     2 @  9.773367679755542E+10,             /* J = 32: 33 */
(PID.TID 0000.0001)                 9.749822780969106E+10,      /* J = 34 */
(PID.TID 0000.0001)                 9.702789705119698E+10,      /* J = 35 */
(PID.TID 0000.0001)                 9.632381759006650E+10,      /* J = 36 */
(PID.TID 0000.0001)                 9.538768561539165E+10,      /* J = 37 */
(PID.TID 0000.0001)                 9.422175635109474E+10,      /* J = 38 */
(PID.TID 0000.0001)                 9.282883862289705E+10,      /* J = 39 */
(PID.TID 0000.0001)                 9.121228809161066E+10,      /* J = 40 */
(PID.TID 0000.0001)                 8.937599916905872E+10,      /* J = 41 */
(PID.TID 0000.0001)                 8.732439563609566E+10,      /* J = 42 */
(PID.TID 0000.0001)                 8.506241998533159E+10,      /* J = 43 */
(PID.TID 0000.0001)                 8.259552151423444E+10,      /* J = 44 */
(PID.TID 0000.0001)                 7.992964319729683E+10,      /* J = 45 */
(PID.TID 0000.0001)                 7.707120736888658E+10,      /* J = 46 */
(PID.TID 0000.0001)                 7.402710025128452E+10,      /* J = 47 */
(PID.TID 0000.0001)                 7.080465536516846E+10,      /* J = 48 */
(PID.TID 0000.0001)                 6.741163586252303E+10,      /* J = 49 */
(PID.TID 0000.0001)                 6.385621582452237E+10,      /* J = 50 */
(PID.TID 0000.0001)                 6.014696056945659E+10,      /* J = 51 */
(PID.TID 0000.0001)                 5.629280601812741E+10,      /* J = 52 */
(PID.TID 0000.0001)                 5.230303716643333E+10,      /* J = 53 */
(PID.TID 0000.0001)                 4.818726571700000E+10,      /* J = 54 */
(PID.TID 0000.0001)                 4.395540692374860E+10,      /* J = 55 */
(PID.TID 0000.0001)                 3.961765570517892E+10,      /* J = 56 */
(PID.TID 0000.0001)                 3.518446208391881E+10,      /* J = 57 */
(PID.TID 0000.0001)                 3.066650601170349E+10,      /* J = 58 */
(PID.TID 0000.0001)                 2.607467164043704E+10,      /* J = 59 */
(PID.TID 0000.0001)                 2.142002110131771E+10,      /* J = 60 */
(PID.TID 0000.0001)                 1.671376785519299E+10,      /* J = 61 */
(PID.TID 0000.0001)                 1.196724967835171E+10,      /* J = 62 */
(PID.TID 0000.0001)                 7.191901348828056E+09,      /* J = 63 */
(PID.TID 0000.0001)                 2.399227099019018E+09       /* J = 64 */
(PID.TID 0000.0001)     ;
(PID.TID 0000.0001) rAw =  /* rAw(:,1,:,1) ( units: m^2 ) */
(PID.TID 0000.0001)   128 @  2.399227099019018E+09              /* I =  1:128 */
(PID.TID 0000.0001)     ;
(PID.TID 0000.0001) rAw =  /* rAw(1,:,1,:) ( units: m^2 ) */
(PID.TID 0000.0001)                 2.399227099019018E+09,      /* J =  1 */
(PID.TID 0000.0001)                 7.191901348828056E+09,      /* J =  2 */
(PID.TID 0000.0001)                 1.196724967835171E+10,      /* J =  3 */
(PID.TID 0000.0001)                 1.671376785519299E+10,      /* J =  4 */
(PID.TID 0000.0001)                 2.142002110131771E+10,      /* J =  5 */
(PID.TID 0000.0001)                 2.607467164043704E+10,      /* J =  6 */
(PID.TID 0000.0001)                 3.066650601170349E+10,      /* J =  7 */
(PID.TID 0000.0001)                 3.518446208391881E+10,      /* J =  8 */
(PID.TID 0000.0001)                 3.961765570517892E+10,      /* J =  9 */
(PID.TID 0000.0001)                 4.395540692374860E+10,      /* J = 10 */
(PID.TID 0000.0001)                 4.818726571700000E+10,      /* J = 11 */
(PID.TID 0000.0001)                 5.230303716643333E+10,      /* J = 12 */
(PID.TID 0000.0001)                 5.629280601812741E+10,      /* J = 13 */
(PID.TID 0000.0001)                 6.014696056945659E+10,      /* J = 14 */
(PID.TID 0000.0001)                 6.385621582452237E+10,      /* J = 15 */
(PID.TID 0000.0001)                 6.741163586252303E+10,      /* J = 16 */
(PID.TID 0000.0001)                 7.080465536516846E+10,      /* J = 17 */
(PID.TID 0000.0001)                 7.402710025128452E+10,      /* J = 18 */
(PID.TID 0000.0001)                 7.707120736888658E+10,      /* J = 19 */
(PID.TID 0000.0001)                 7.992964319729683E+10,      /* J = 20 */
(PID.TID 0000.0001)                 8.259552151423444E+10,      /* J = 21 */
(PID.TID 0000.0001)                 8.506241998533159E+10,      /* J = 22 */
(PID.TID 0000.0001)                 8.732439563609566E+10,      /* J = 23 */
(PID.TID 0000.0001)                 8.937599916905872E+10,      /* J = 24 */
(PID.TID 0000.0001)                 9.121228809161066E+10,      /* J = 25 */
(PID.TID 0000.0001)                 9.282883862289705E+10,      /* J = 26 */
(PID.TID 0000.0001)                 9.422175635109474E+10,      /* J = 27 */
(PID.TID 0000.0001)                 9.538768561539165E+10,      /* J = 28 */
(PID.TID 0000.0001)                 9.632381759006650E+10,      /* J = 29 */
(PID.TID 0000.0001)                 9.702789705119698E+10,      /* J = 30 */
(PID.TID 0000.0001)                 9.749822780969106E+10,      /* J = 31 */
(PID.TID 0000.0001)     2 @  9.773367679755542E+10,             /* J = 32: 33 */
(PID.TID 0000.0001)                 9.749822780969106E+10,      /* J = 34 */
(PID.TID 0000.0001)                 9.702789705119698E+10,      /* J = 35 */
(PID.TID 0000.0001)                 9.632381759006650E+10,      /* J = 36 */
(PID.TID 0000.0001)                 9.538768561539165E+10,      /* J = 37 */
(PID.TID 0000.0001)                 9.422175635109474E+10,      /* J = 38 */
(PID.TID 0000.0001)                 9.282883862289705E+10,      /* J = 39 */
(PID.TID 0000.0001)                 9.121228809161066E+10,      /* J = 40 */
(PID.TID 0000.0001)                 8.937599916905872E+10,      /* J = 41 */
(PID.TID 0000.0001)                 8.732439563609566E+10,      /* J = 42 */
(PID.TID 0000.0001)                 8.506241998533159E+10,      /* J = 43 */
(PID.TID 0000.0001)                 8.259552151423444E+10,      /* J = 44 */
(PID.TID 0000.0001)                 7.992964319729683E+10,      /* J = 45 */
(PID.TID 0000.0001)                 7.707120736888658E+10,      /* J = 46 */
(PID.TID 0000.0001)                 7.402710025128452E+10,      /* J = 47 */
(PID.TID 0000.0001)                 7.080465536516846E+10,      /* J = 48 */
(PID.TID 0000.0001)                 6.741163586252303E+10,      /* J = 49 */
(PID.TID 0000.0001)                 6.385621582452237E+10,      /* J = 50 */
(PID.TID 0000.0001)                 6.014696056945659E+10,      /* J = 51 */
(PID.TID 0000.0001)                 5.629280601812741E+10,      /* J = 52 */
(PID.TID 0000.0001)                 5.230303716643333E+10,      /* J = 53 */
(PID.TID 0000.0001)                 4.818726571700000E+10,      /* J = 54 */
(PID.TID 0000.0001)                 4.395540692374860E+10,      /* J = 55 */
(PID.TID 0000.0001)                 3.961765570517892E+10,      /* J = 56 */
(PID.TID 0000.0001)                 3.518446208391881E+10,      /* J = 57 */
(PID.TID 0000.0001)                 3.066650601170349E+10,      /* J = 58 */
(PID.TID 0000.0001)                 2.607467164043704E+10,      /* J = 59 */
(PID.TID 0000.0001)                 2.142002110131771E+10,      /* J = 60 */
(PID.TID 0000.0001)                 1.671376785519299E+10,      /* J = 61 */
(PID.TID 0000.0001)                 1.196724967835171E+10,      /* J = 62 */
(PID.TID 0000.0001)                 7.191901348828056E+09,      /* J = 63 */
(PID.TID 0000.0001)                 2.399227099019018E+09       /* J = 64 */
(PID.TID 0000.0001)     ;
(PID.TID 0000.0001) rAs =  /* rAs(:,1,:,1) ( units: m^2 ) */
(PID.TID 0000.0001)   128 @  0.000000000000000E+00              /* I =  1:128 */
(PID.TID 0000.0001)     ;
(PID.TID 0000.0001) rAs =  /* rAs(1,:,1,:) ( units: m^2 ) */
(PID.TID 0000.0001)                 0.000000000000000E+00,      /* J =  1 */
(PID.TID 0000.0001)                 4.797008993346594E+09,      /* J =  2 */
(PID.TID 0000.0001)                 9.582461571859739E+09,      /* J =  3 */
(PID.TID 0000.0001)                 1.434482916112175E+10,      /* J =  4 */
(PID.TID 0000.0001)                 1.907263880047594E+10,      /* J =  5 */
(PID.TID 0000.0001)                 2.375450078239423E+10,      /* J =  6 */
(PID.TID 0000.0001)                 2.837913609127881E+10,      /* J =  7 */
(PID.TID 0000.0001)                 3.293540357560110E+10,      /* J =  8 */
(PID.TID 0000.0001)                 3.741232678790870E+10,      /* J =  9 */
(PID.TID 0000.0001)                 4.179912042805190E+10,      /* J = 10 */
(PID.TID 0000.0001)                 4.608521632591324E+10,      /* J = 11 */
(PID.TID 0000.0001)                 5.026028890105701E+10,      /* J = 12 */
(PID.TID 0000.0001)                 5.431428003795675E+10,      /* J = 13 */
(PID.TID 0000.0001)                 5.823742331687641E+10,      /* J = 14 */
(PID.TID 0000.0001)                 6.202026754202965E+10,      /* J = 15 */
(PID.TID 0000.0001)                 6.565369951034003E+10,      /* J = 16 */
(PID.TID 0000.0001)                 6.912896596594559E+10,      /* J = 17 */
(PID.TID 0000.0001)                 7.243769468755632E+10,      /* J = 18 */
(PID.TID 0000.0001)                 7.557191465787256E+10,      /* J = 19 */
(PID.TID 0000.0001)                 7.852407526645966E+10,      /* J = 20 */
(PID.TID 0000.0001)                 8.128706449983365E+10,      /* J = 21 */
(PID.TID 0000.0001)                 8.385422607492096E+10,      /* J = 22 */
(PID.TID 0000.0001)                 8.621937547463148E+10,      /* J = 23 */
(PID.TID 0000.0001)                 8.837681484689812E+10,      /* J = 24 */
(PID.TID 0000.0001)                 9.032134673130376E+10,      /* J = 25 */
(PID.TID 0000.0001)                 9.204828658021815E+10,      /* J = 26 */
(PID.TID 0000.0001)                 9.355347404428317E+10,      /* J = 27 */
(PID.TID 0000.0001)                 9.483328299505896E+10,      /* J = 28 */
(PID.TID 0000.0001)                 9.588463026068500E+10,      /* J = 29 */
(PID.TID 0000.0001)                 9.670498305351135E+10,      /* J = 30 */
(PID.TID 0000.0001)                 9.729236507180571E+10,      /* J = 31 */
(PID.TID 0000.0001)                 9.764536126083739E+10,      /* J = 32 */
(PID.TID 0000.0001)                 9.776312122186816E+10,      /* J = 33 */
(PID.TID 0000.0001)                 9.764536126083739E+10,      /* J = 34 */
(PID.TID 0000.0001)                 9.729236507180571E+10,      /* J = 35 */
(PID.TID 0000.0001)                 9.670498305351135E+10,      /* J = 36 */
(PID.TID 0000.0001)                 9.588463026068500E+10,      /* J = 37 */
(PID.TID 0000.0001)                 9.483328299505896E+10,      /* J = 38 */
(PID.TID 0000.0001)                 9.355347404428317E+10,      /* J = 39 */
(PID.TID 0000.0001)                 9.204828658021815E+10,      /* J = 40 */
(PID.TID 0000.0001)                 9.032134673130376E+10,      /* J = 41 */
(PID.TID 0000.0001)                 8.837681484689812E+10,      /* J = 42 */
(PID.TID 0000.0001)                 8.621937547463148E+10,      /* J = 43 */
(PID.TID 0000.0001)                 8.385422607492096E+10,      /* J = 44 */
(PID.TID 0000.0001)                 8.128706449983365E+10,      /* J = 45 */
(PID.TID 0000.0001)                 7.852407526645966E+10,      /* J = 46 */
(PID.TID 0000.0001)                 7.557191465787256E+10,      /* J = 47 */
(PID.TID 0000.0001)                 7.243769468755632E+10,      /* J = 48 */
(PID.TID 0000.0001)                 6.912896596594559E+10,      /* J = 49 */
(PID.TID 0000.0001)                 6.565369951034003E+10,      /* J = 50 */
(PID.TID 0000.0001)                 6.202026754202965E+10,      /* J = 51 */
(PID.TID 0000.0001)                 5.823742331687641E+10,      /* J = 52 */
(PID.TID 0000.0001)                 5.431428003795675E+10,      /* J = 53 */
(PID.TID 0000.0001)                 5.026028890105701E+10,      /* J = 54 */
(PID.TID 0000.0001)                 4.608521632591324E+10,      /* J = 55 */
(PID.TID 0000.0001)                 4.179912042805190E+10,      /* J = 56 */
(PID.TID 0000.0001)                 3.741232678790870E+10,      /* J = 57 */
(PID.TID 0000.0001)                 3.293540357560110E+10,      /* J = 58 */
(PID.TID 0000.0001)                 2.837913609127881E+10,      /* J = 59 */
(PID.TID 0000.0001)                 2.375450078239423E+10,      /* J = 60 */
(PID.TID 0000.0001)                 1.907263880047594E+10,      /* J = 61 */
(PID.TID 0000.0001)                 1.434482916112175E+10,      /* J = 62 */
(PID.TID 0000.0001)                 9.582461571859739E+09,      /* J = 63 */
(PID.TID 0000.0001)                 4.797008993346594E+09       /* J = 64 */
(PID.TID 0000.0001)     ;
(PID.TID 0000.0001) globalArea = /* Integrated horizontal Area (m^2) */
(PID.TID 0000.0001)                 3.303845519010005E+14
(PID.TID 0000.0001)     ;
(PID.TID 0000.0001) the_run_name = /* Name of this simulation */
(PID.TID 0000.0001)               'Darwin12'
(PID.TID 0000.0001)     ;
(PID.TID 0000.0001) // =======================================================
(PID.TID 0000.0001) // End of Model config. summary
(PID.TID 0000.0001) // =======================================================
(PID.TID 0000.0001) 
(PID.TID 0000.0001) == Packages configuration : Check & print summary ==
(PID.TID 0000.0001) 
(PID.TID 0000.0001) GMREDI_CHECK: #define GMREDI
(PID.TID 0000.0001) GM_AdvForm =     /* if FALSE => use SkewFlux Form */
(PID.TID 0000.0001)                   F
(PID.TID 0000.0001)     ;
(PID.TID 0000.0001) GM_InMomAsStress = /* if TRUE => apply as Eddy Stress */
(PID.TID 0000.0001)                   F
(PID.TID 0000.0001)     ;
(PID.TID 0000.0001) GM_AdvSeparate = /* Calc Bolus & Euler Adv. separately */
(PID.TID 0000.0001)                   F
(PID.TID 0000.0001)     ;
(PID.TID 0000.0001) GM_ExtraDiag =   /* Tensor Extra Diag (line 1&2) non 0 */
(PID.TID 0000.0001)                   F
(PID.TID 0000.0001)     ;
(PID.TID 0000.0001) GM_isopycK =    /* Background Isopyc. Diffusivity [m^2/s] */
(PID.TID 0000.0001)                 1.000000000000000E+03
(PID.TID 0000.0001)     ;
(PID.TID 0000.0001) GM_skewflx*K =  /* Background GM_SkewFlx Diffusivity [m^2/s] */
(PID.TID 0000.0001)                 1.000000000000000E+03
(PID.TID 0000.0001)     ;
(PID.TID 0000.0001) GM_advec*K =    /* Backg. GM-Advec(=Bolus) Diffusivity [m^2/s]*/
(PID.TID 0000.0001)                 0.000000000000000E+00
(PID.TID 0000.0001)     ;
(PID.TID 0000.0001) GM_Kmin_horiz = /* Minimum Horizontal Diffusivity [m^2/s] */
(PID.TID 0000.0001)                 5.000000000000000E+01
(PID.TID 0000.0001)     ;
(PID.TID 0000.0001) GM_Visbeck_alpha = /* Visbeck alpha coeff. [-] */
(PID.TID 0000.0001)                 0.000000000000000E+00
(PID.TID 0000.0001)     ;
(PID.TID 0000.0001) GM_Small_Number =  /* epsilon used in slope calc */
(PID.TID 0000.0001)                 9.999999999999999E-21
(PID.TID 0000.0001)     ;
(PID.TID 0000.0001) GM_slopeSqCutoff = /* Slope^2 cut-off value */
(PID.TID 0000.0001)                 1.000000000000000E+08
(PID.TID 0000.0001)     ;
(PID.TID 0000.0001) GM_taper_scheme =  /* Type of Tapering/Clipping scheme */
(PID.TID 0000.0001)               'dm95                                    '
(PID.TID 0000.0001)     ;
(PID.TID 0000.0001) GM_maxSlope =  /* Maximum Slope (Tapering/Clipping) */
(PID.TID 0000.0001)                 1.000000000000000E-02
(PID.TID 0000.0001)     ;
(PID.TID 0000.0001) GM_facTrL2dz = /* Minimum Trans.Layer Thick. (factor of dz) */
(PID.TID 0000.0001)                 1.000000000000000E+00
(PID.TID 0000.0001)     ;
(PID.TID 0000.0001) GM_facTrL2ML = /* Max.Trans.Layer Thick. (factor of MxL Depth)*/
(PID.TID 0000.0001)                 5.000000000000000E+00
(PID.TID 0000.0001)     ;
(PID.TID 0000.0001) GM_maxTransLay = /* Maximum Transition Layer Thickness [m] */
(PID.TID 0000.0001)                 5.000000000000000E+02
(PID.TID 0000.0001)     ;
(PID.TID 0000.0001) GM_UseBVP = /* if TRUE => use bvp a la Ferrari et al. (2010) */
(PID.TID 0000.0001)                   F
(PID.TID 0000.0001)     ;
(PID.TID 0000.0001) GM_BVP_ModeNumber = /* Vertical mode number for BVP wave speed */
(PID.TID 0000.0001)                       1
(PID.TID 0000.0001)     ;
(PID.TID 0000.0001) GM_BVP_cMin = /* Minimum wave speed for BVP [m/s] */
(PID.TID 0000.0001)                 1.000000000000000E-01
(PID.TID 0000.0001)     ;
(PID.TID 0000.0001) GM_useSubMeso = /* if TRUE => use Sub-Meso param. (B.Fox-Kemper) */
(PID.TID 0000.0001)                   F
(PID.TID 0000.0001)     ;
(PID.TID 0000.0001) subMeso_Ceff = /* efficiency coeff. of Mixed-Layer Eddies [-] */
(PID.TID 0000.0001)                 7.000000000000001E-02
(PID.TID 0000.0001)     ;
(PID.TID 0000.0001) subMeso_invTau = /* inverse of Sub-Meso mixing time-scale [/s] */
(PID.TID 0000.0001)                 2.000000000000000E-06
(PID.TID 0000.0001)     ;
(PID.TID 0000.0001) subMeso_LfMin = /* minimum length-scale "Lf" [m] */
(PID.TID 0000.0001)                 1.000000000000000E+03
(PID.TID 0000.0001)     ;
(PID.TID 0000.0001) subMeso_Lmax = /* maximum grid-scale length [m] */
(PID.TID 0000.0001)                 1.100000000000000E+05
(PID.TID 0000.0001)     ;
(PID.TID 0000.0001) PTRACERS_CHECK: #define ALLOW_PTRACERS
(PID.TID 0000.0001) PTRACERS_CHECK: updated GAD_OlMinSize=  2  0  1
(PID.TID 0000.0001) // ===================================
(PID.TID 0000.0001) // PTRACERS parameters
(PID.TID 0000.0001) // ===================================
(PID.TID 0000.0001) PTRACERS_numInUse = /* number of tracers */
(PID.TID 0000.0001)                     207
(PID.TID 0000.0001)     ;
(PID.TID 0000.0001) PTRACERS_Iter0 = /* timestep number when tracers are initialized */
(PID.TID 0000.0001)                 5644800
(PID.TID 0000.0001)     ;
(PID.TID 0000.0001) PTRACERS_startAllTrc =/* all tracers start @ startTime */
(PID.TID 0000.0001)                   T
(PID.TID 0000.0001)     ;
(PID.TID 0000.0001) PTRACERS_addSrelax2EmP =/* add Salt relaxation to EmP */
(PID.TID 0000.0001)                   F
(PID.TID 0000.0001)     ;
(PID.TID 0000.0001) PTRACERS_dTLev =   /* Ptracer timestep ( s ) */
(PID.TID 0000.0001)    15 @  4.320000000000000E+04              /* K =  1: 15 */
(PID.TID 0000.0001)     ;
(PID.TID 0000.0001) PTRACERS_dumpFreq = /* Frequency^-1 for snapshot output (s) */
(PID.TID 0000.0001)                 4.320000000000000E+04
(PID.TID 0000.0001)     ;
(PID.TID 0000.0001) PTRACERS_taveFreq = /* Frequency^-1 for time-Aver. output (s) */
(PID.TID 0000.0001)                 2.592000000000000E+06
(PID.TID 0000.0001)     ;
(PID.TID 0000.0001) PTRACERS_useRecords = /* all tracers in 1 file */
(PID.TID 0000.0001)                   F
(PID.TID 0000.0001)     ;
(PID.TID 0000.0001) PTRACERS_timeave_mnc = /* use MNC for Tave output */
(PID.TID 0000.0001)                   T
(PID.TID 0000.0001)     ;
(PID.TID 0000.0001) PTRACERS_snapshot_mnc = /* use MNC for snapshot output */
(PID.TID 0000.0001)                   T
(PID.TID 0000.0001)     ;
(PID.TID 0000.0001) PTRACERS_pickup_write_mnc = /* use MNC for writing pickups */
(PID.TID 0000.0001)                   F
(PID.TID 0000.0001)     ;
(PID.TID 0000.0001) PTRACERS_pickup_read_mnc = /* use MNC for reading pickups */
(PID.TID 0000.0001)                   F
(PID.TID 0000.0001)     ;
(PID.TID 0000.0001)  -----------------------------------
(PID.TID 0000.0001)  tracer number :    1
(PID.TID 0000.0001) PTRACERS_names = /* Tracer short name */
(PID.TID 0000.0001)               'DIC'
(PID.TID 0000.0001)     ;
(PID.TID 0000.0001) PTRACERS_long_names = /* Tracer long name */
(PID.TID 0000.0001)               ''
(PID.TID 0000.0001)     ;
(PID.TID 0000.0001) PTRACERS_ioLabel = /* tracer IO Label */
(PID.TID 0000.0001)               '01'
(PID.TID 0000.0001)     ;
(PID.TID 0000.0001) PTRACERS_advScheme = /* Advection Scheme */
(PID.TID 0000.0001)                      33
(PID.TID 0000.0001)     ;
(PID.TID 0000.0001) PTRACERS_SOM_Advection = /* tracer uses SOM advection scheme */
(PID.TID 0000.0001)                   F
(PID.TID 0000.0001)     ;
(PID.TID 0000.0001) PTRACERS_ImplVertAdv = /* implicit vert. advection flag */
(PID.TID 0000.0001)                   F
(PID.TID 0000.0001)     ;
(PID.TID 0000.0001) PTRACERS_diffKh = /* Laplacian Diffusivity */
(PID.TID 0000.0001)                 0.000000000000000E+00
(PID.TID 0000.0001)     ;
(PID.TID 0000.0001) PTRACERS_diffK4 = /* Biharmonic Diffusivity */
(PID.TID 0000.0001)                 0.000000000000000E+00
(PID.TID 0000.0001)     ;
(PID.TID 0000.0001) PTRACERS_diffKrNr = /* Vertical Diffusivity */
(PID.TID 0000.0001)    15 @  1.000000000000000E-05              /* K =  1: 15 */
(PID.TID 0000.0001)     ;
(PID.TID 0000.0001) PTRACERS_useGMRedi = /* apply GM-Redi */
(PID.TID 0000.0001)                   T
(PID.TID 0000.0001)     ;
(PID.TID 0000.0001) PTRACERS_useDWNSLP = /* apply DOWN-SLOPE Flow */
(PID.TID 0000.0001)                   F
(PID.TID 0000.0001)     ;
(PID.TID 0000.0001) PTRACERS_useKPP = /* apply KPP scheme */
(PID.TID 0000.0001)                   F
(PID.TID 0000.0001)     ;
(PID.TID 0000.0001) PTRACERS_ref = /* Reference vertical profile */
(PID.TID 0000.0001)    15 @  0.000000000000000E+00              /* K =  1: 15 */
(PID.TID 0000.0001)     ;
(PID.TID 0000.0001) PTRACERS_EvPrRn =/* tracer conc. in Evap. & Rain */
(PID.TID 0000.0001)                 1.234567000000000E+05
(PID.TID 0000.0001)     ;
(PID.TID 0000.0001)  -----------------------------------
(PID.TID 0000.0001)  tracer number :    2
(PID.TID 0000.0001) PTRACERS_names = /* Tracer short name */
(PID.TID 0000.0001)               'NH4'
(PID.TID 0000.0001)     ;
(PID.TID 0000.0001) PTRACERS_long_names = /* Tracer long name */
(PID.TID 0000.0001)               ''
(PID.TID 0000.0001)     ;
(PID.TID 0000.0001) PTRACERS_ioLabel = /* tracer IO Label */
(PID.TID 0000.0001)               '02'
(PID.TID 0000.0001)     ;
(PID.TID 0000.0001) PTRACERS_advScheme = /* Advection Scheme */
(PID.TID 0000.0001)                      33
(PID.TID 0000.0001)     ;
(PID.TID 0000.0001) PTRACERS_SOM_Advection = /* tracer uses SOM advection scheme */
(PID.TID 0000.0001)                   F
(PID.TID 0000.0001)     ;
(PID.TID 0000.0001) PTRACERS_ImplVertAdv = /* implicit vert. advection flag */
(PID.TID 0000.0001)                   F
(PID.TID 0000.0001)     ;
(PID.TID 0000.0001) PTRACERS_diffKh = /* Laplacian Diffusivity */
(PID.TID 0000.0001)                 0.000000000000000E+00
(PID.TID 0000.0001)     ;
(PID.TID 0000.0001) PTRACERS_diffK4 = /* Biharmonic Diffusivity */
(PID.TID 0000.0001)                 0.000000000000000E+00
(PID.TID 0000.0001)     ;
(PID.TID 0000.0001) PTRACERS_diffKrNr = /* Vertical Diffusivity */
(PID.TID 0000.0001)    15 @  1.000000000000000E-05              /* K =  1: 15 */
(PID.TID 0000.0001)     ;
(PID.TID 0000.0001) PTRACERS_useGMRedi = /* apply GM-Redi */
(PID.TID 0000.0001)                   T
(PID.TID 0000.0001)     ;
(PID.TID 0000.0001) PTRACERS_useDWNSLP = /* apply DOWN-SLOPE Flow */
(PID.TID 0000.0001)                   F
(PID.TID 0000.0001)     ;
(PID.TID 0000.0001) PTRACERS_useKPP = /* apply KPP scheme */
(PID.TID 0000.0001)                   F
(PID.TID 0000.0001)     ;
(PID.TID 0000.0001) PTRACERS_ref = /* Reference vertical profile */
(PID.TID 0000.0001)    15 @  0.000000000000000E+00              /* K =  1: 15 */
(PID.TID 0000.0001)     ;
(PID.TID 0000.0001) PTRACERS_EvPrRn =/* tracer conc. in Evap. & Rain */
(PID.TID 0000.0001)                 1.234567000000000E+05
(PID.TID 0000.0001)     ;
(PID.TID 0000.0001)  -----------------------------------
(PID.TID 0000.0001)  tracer number :    3
(PID.TID 0000.0001) PTRACERS_names = /* Tracer short name */
(PID.TID 0000.0001)               'NO2'
(PID.TID 0000.0001)     ;
(PID.TID 0000.0001) PTRACERS_long_names = /* Tracer long name */
(PID.TID 0000.0001)               ''
(PID.TID 0000.0001)     ;
(PID.TID 0000.0001) PTRACERS_ioLabel = /* tracer IO Label */
(PID.TID 0000.0001)               '03'
(PID.TID 0000.0001)     ;
(PID.TID 0000.0001) PTRACERS_advScheme = /* Advection Scheme */
(PID.TID 0000.0001)                      33
(PID.TID 0000.0001)     ;
(PID.TID 0000.0001) PTRACERS_SOM_Advection = /* tracer uses SOM advection scheme */
(PID.TID 0000.0001)                   F
(PID.TID 0000.0001)     ;
(PID.TID 0000.0001) PTRACERS_ImplVertAdv = /* implicit vert. advection flag */
(PID.TID 0000.0001)                   F
(PID.TID 0000.0001)     ;
(PID.TID 0000.0001) PTRACERS_diffKh = /* Laplacian Diffusivity */
(PID.TID 0000.0001)                 0.000000000000000E+00
(PID.TID 0000.0001)     ;
(PID.TID 0000.0001) PTRACERS_diffK4 = /* Biharmonic Diffusivity */
(PID.TID 0000.0001)                 0.000000000000000E+00
(PID.TID 0000.0001)     ;
(PID.TID 0000.0001) PTRACERS_diffKrNr = /* Vertical Diffusivity */
(PID.TID 0000.0001)    15 @  1.000000000000000E-05              /* K =  1: 15 */
(PID.TID 0000.0001)     ;
(PID.TID 0000.0001) PTRACERS_useGMRedi = /* apply GM-Redi */
(PID.TID 0000.0001)                   T
(PID.TID 0000.0001)     ;
(PID.TID 0000.0001) PTRACERS_useDWNSLP = /* apply DOWN-SLOPE Flow */
(PID.TID 0000.0001)                   F
(PID.TID 0000.0001)     ;
(PID.TID 0000.0001) PTRACERS_useKPP = /* apply KPP scheme */
(PID.TID 0000.0001)                   F
(PID.TID 0000.0001)     ;
(PID.TID 0000.0001) PTRACERS_ref = /* Reference vertical profile */
(PID.TID 0000.0001)    15 @  0.000000000000000E+00              /* K =  1: 15 */
(PID.TID 0000.0001)     ;
(PID.TID 0000.0001) PTRACERS_EvPrRn =/* tracer conc. in Evap. & Rain */
(PID.TID 0000.0001)                 1.234567000000000E+05
(PID.TID 0000.0001)     ;
(PID.TID 0000.0001)  -----------------------------------
(PID.TID 0000.0001)  tracer number :    4
(PID.TID 0000.0001) PTRACERS_names = /* Tracer short name */
(PID.TID 0000.0001)               'NO3'
(PID.TID 0000.0001)     ;
(PID.TID 0000.0001) PTRACERS_long_names = /* Tracer long name */
(PID.TID 0000.0001)               ''
(PID.TID 0000.0001)     ;
(PID.TID 0000.0001) PTRACERS_ioLabel = /* tracer IO Label */
(PID.TID 0000.0001)               '04'
(PID.TID 0000.0001)     ;
(PID.TID 0000.0001) PTRACERS_advScheme = /* Advection Scheme */
(PID.TID 0000.0001)                      33
(PID.TID 0000.0001)     ;
(PID.TID 0000.0001) PTRACERS_SOM_Advection = /* tracer uses SOM advection scheme */
(PID.TID 0000.0001)                   F
(PID.TID 0000.0001)     ;
(PID.TID 0000.0001) PTRACERS_ImplVertAdv = /* implicit vert. advection flag */
(PID.TID 0000.0001)                   F
(PID.TID 0000.0001)     ;
(PID.TID 0000.0001) PTRACERS_diffKh = /* Laplacian Diffusivity */
(PID.TID 0000.0001)                 0.000000000000000E+00
(PID.TID 0000.0001)     ;
(PID.TID 0000.0001) PTRACERS_diffK4 = /* Biharmonic Diffusivity */
(PID.TID 0000.0001)                 0.000000000000000E+00
(PID.TID 0000.0001)     ;
(PID.TID 0000.0001) PTRACERS_diffKrNr = /* Vertical Diffusivity */
(PID.TID 0000.0001)    15 @  1.000000000000000E-05              /* K =  1: 15 */
(PID.TID 0000.0001)     ;
(PID.TID 0000.0001) PTRACERS_useGMRedi = /* apply GM-Redi */
(PID.TID 0000.0001)                   T
(PID.TID 0000.0001)     ;
(PID.TID 0000.0001) PTRACERS_useDWNSLP = /* apply DOWN-SLOPE Flow */
(PID.TID 0000.0001)                   F
(PID.TID 0000.0001)     ;
(PID.TID 0000.0001) PTRACERS_useKPP = /* apply KPP scheme */
(PID.TID 0000.0001)                   F
(PID.TID 0000.0001)     ;
(PID.TID 0000.0001) PTRACERS_ref = /* Reference vertical profile */
(PID.TID 0000.0001)    15 @  0.000000000000000E+00              /* K =  1: 15 */
(PID.TID 0000.0001)     ;
(PID.TID 0000.0001) PTRACERS_EvPrRn =/* tracer conc. in Evap. & Rain */
(PID.TID 0000.0001)                 1.234567000000000E+05
(PID.TID 0000.0001)     ;
(PID.TID 0000.0001)  -----------------------------------
(PID.TID 0000.0001)  tracer number :    5
(PID.TID 0000.0001) PTRACERS_names = /* Tracer short name */
(PID.TID 0000.0001)               'PO4'
(PID.TID 0000.0001)     ;
(PID.TID 0000.0001) PTRACERS_long_names = /* Tracer long name */
(PID.TID 0000.0001)               ''
(PID.TID 0000.0001)     ;
(PID.TID 0000.0001) PTRACERS_ioLabel = /* tracer IO Label */
(PID.TID 0000.0001)               '05'
(PID.TID 0000.0001)     ;
(PID.TID 0000.0001) PTRACERS_advScheme = /* Advection Scheme */
(PID.TID 0000.0001)                      33
(PID.TID 0000.0001)     ;
(PID.TID 0000.0001) PTRACERS_SOM_Advection = /* tracer uses SOM advection scheme */
(PID.TID 0000.0001)                   F
(PID.TID 0000.0001)     ;
(PID.TID 0000.0001) PTRACERS_ImplVertAdv = /* implicit vert. advection flag */
(PID.TID 0000.0001)                   F
(PID.TID 0000.0001)     ;
(PID.TID 0000.0001) PTRACERS_diffKh = /* Laplacian Diffusivity */
(PID.TID 0000.0001)                 0.000000000000000E+00
(PID.TID 0000.0001)     ;
(PID.TID 0000.0001) PTRACERS_diffK4 = /* Biharmonic Diffusivity */
(PID.TID 0000.0001)                 0.000000000000000E+00
(PID.TID 0000.0001)     ;
(PID.TID 0000.0001) PTRACERS_diffKrNr = /* Vertical Diffusivity */
(PID.TID 0000.0001)    15 @  1.000000000000000E-05              /* K =  1: 15 */
(PID.TID 0000.0001)     ;
(PID.TID 0000.0001) PTRACERS_useGMRedi = /* apply GM-Redi */
(PID.TID 0000.0001)                   T
(PID.TID 0000.0001)     ;
(PID.TID 0000.0001) PTRACERS_useDWNSLP = /* apply DOWN-SLOPE Flow */
(PID.TID 0000.0001)                   F
(PID.TID 0000.0001)     ;
(PID.TID 0000.0001) PTRACERS_useKPP = /* apply KPP scheme */
(PID.TID 0000.0001)                   F
(PID.TID 0000.0001)     ;
(PID.TID 0000.0001) PTRACERS_ref = /* Reference vertical profile */
(PID.TID 0000.0001)    15 @  0.000000000000000E+00              /* K =  1: 15 */
(PID.TID 0000.0001)     ;
(PID.TID 0000.0001) PTRACERS_EvPrRn =/* tracer conc. in Evap. & Rain */
(PID.TID 0000.0001)                 1.234567000000000E+05
(PID.TID 0000.0001)     ;
(PID.TID 0000.0001)  -----------------------------------
(PID.TID 0000.0001)  tracer number :    6
(PID.TID 0000.0001) PTRACERS_names = /* Tracer short name */
(PID.TID 0000.0001)               'SiO2'
(PID.TID 0000.0001)     ;
(PID.TID 0000.0001) PTRACERS_long_names = /* Tracer long name */
(PID.TID 0000.0001)               ''
(PID.TID 0000.0001)     ;
(PID.TID 0000.0001) PTRACERS_ioLabel = /* tracer IO Label */
(PID.TID 0000.0001)               '06'
(PID.TID 0000.0001)     ;
(PID.TID 0000.0001) PTRACERS_advScheme = /* Advection Scheme */
(PID.TID 0000.0001)                      33
(PID.TID 0000.0001)     ;
(PID.TID 0000.0001) PTRACERS_SOM_Advection = /* tracer uses SOM advection scheme */
(PID.TID 0000.0001)                   F
(PID.TID 0000.0001)     ;
(PID.TID 0000.0001) PTRACERS_ImplVertAdv = /* implicit vert. advection flag */
(PID.TID 0000.0001)                   F
(PID.TID 0000.0001)     ;
(PID.TID 0000.0001) PTRACERS_diffKh = /* Laplacian Diffusivity */
(PID.TID 0000.0001)                 0.000000000000000E+00
(PID.TID 0000.0001)     ;
(PID.TID 0000.0001) PTRACERS_diffK4 = /* Biharmonic Diffusivity */
(PID.TID 0000.0001)                 0.000000000000000E+00
(PID.TID 0000.0001)     ;
(PID.TID 0000.0001) PTRACERS_diffKrNr = /* Vertical Diffusivity */
(PID.TID 0000.0001)    15 @  1.000000000000000E-05              /* K =  1: 15 */
(PID.TID 0000.0001)     ;
(PID.TID 0000.0001) PTRACERS_useGMRedi = /* apply GM-Redi */
(PID.TID 0000.0001)                   T
(PID.TID 0000.0001)     ;
(PID.TID 0000.0001) PTRACERS_useDWNSLP = /* apply DOWN-SLOPE Flow */
(PID.TID 0000.0001)                   F
(PID.TID 0000.0001)     ;
(PID.TID 0000.0001) PTRACERS_useKPP = /* apply KPP scheme */
(PID.TID 0000.0001)                   F
(PID.TID 0000.0001)     ;
(PID.TID 0000.0001) PTRACERS_ref = /* Reference vertical profile */
(PID.TID 0000.0001)    15 @  0.000000000000000E+00              /* K =  1: 15 */
(PID.TID 0000.0001)     ;
(PID.TID 0000.0001) PTRACERS_EvPrRn =/* tracer conc. in Evap. & Rain */
(PID.TID 0000.0001)                 1.234567000000000E+05
(PID.TID 0000.0001)     ;
(PID.TID 0000.0001)  -----------------------------------
(PID.TID 0000.0001)  tracer number :    7
(PID.TID 0000.0001) PTRACERS_names = /* Tracer short name */
(PID.TID 0000.0001)               'FeT'
(PID.TID 0000.0001)     ;
(PID.TID 0000.0001) PTRACERS_long_names = /* Tracer long name */
(PID.TID 0000.0001)               ''
(PID.TID 0000.0001)     ;
(PID.TID 0000.0001) PTRACERS_ioLabel = /* tracer IO Label */
(PID.TID 0000.0001)               '07'
(PID.TID 0000.0001)     ;
(PID.TID 0000.0001) PTRACERS_advScheme = /* Advection Scheme */
(PID.TID 0000.0001)                      33
(PID.TID 0000.0001)     ;
(PID.TID 0000.0001) PTRACERS_SOM_Advection = /* tracer uses SOM advection scheme */
(PID.TID 0000.0001)                   F
(PID.TID 0000.0001)     ;
(PID.TID 0000.0001) PTRACERS_ImplVertAdv = /* implicit vert. advection flag */
(PID.TID 0000.0001)                   F
(PID.TID 0000.0001)     ;
(PID.TID 0000.0001) PTRACERS_diffKh = /* Laplacian Diffusivity */
(PID.TID 0000.0001)                 0.000000000000000E+00
(PID.TID 0000.0001)     ;
(PID.TID 0000.0001) PTRACERS_diffK4 = /* Biharmonic Diffusivity */
(PID.TID 0000.0001)                 0.000000000000000E+00
(PID.TID 0000.0001)     ;
(PID.TID 0000.0001) PTRACERS_diffKrNr = /* Vertical Diffusivity */
(PID.TID 0000.0001)    15 @  1.000000000000000E-05              /* K =  1: 15 */
(PID.TID 0000.0001)     ;
(PID.TID 0000.0001) PTRACERS_useGMRedi = /* apply GM-Redi */
(PID.TID 0000.0001)                   T
(PID.TID 0000.0001)     ;
(PID.TID 0000.0001) PTRACERS_useDWNSLP = /* apply DOWN-SLOPE Flow */
(PID.TID 0000.0001)                   F
(PID.TID 0000.0001)     ;
(PID.TID 0000.0001) PTRACERS_useKPP = /* apply KPP scheme */
(PID.TID 0000.0001)                   F
(PID.TID 0000.0001)     ;
(PID.TID 0000.0001) PTRACERS_ref = /* Reference vertical profile */
(PID.TID 0000.0001)    15 @  0.000000000000000E+00              /* K =  1: 15 */
(PID.TID 0000.0001)     ;
(PID.TID 0000.0001) PTRACERS_EvPrRn =/* tracer conc. in Evap. & Rain */
(PID.TID 0000.0001)                 1.234567000000000E+05
(PID.TID 0000.0001)     ;
(PID.TID 0000.0001)  -----------------------------------
(PID.TID 0000.0001)  tracer number :    8
(PID.TID 0000.0001) PTRACERS_names = /* Tracer short name */
(PID.TID 0000.0001)               'DOC'
(PID.TID 0000.0001)     ;
(PID.TID 0000.0001) PTRACERS_long_names = /* Tracer long name */
(PID.TID 0000.0001)               ''
(PID.TID 0000.0001)     ;
(PID.TID 0000.0001) PTRACERS_ioLabel = /* tracer IO Label */
(PID.TID 0000.0001)               '08'
(PID.TID 0000.0001)     ;
(PID.TID 0000.0001) PTRACERS_advScheme = /* Advection Scheme */
(PID.TID 0000.0001)                      33
(PID.TID 0000.0001)     ;
(PID.TID 0000.0001) PTRACERS_SOM_Advection = /* tracer uses SOM advection scheme */
(PID.TID 0000.0001)                   F
(PID.TID 0000.0001)     ;
(PID.TID 0000.0001) PTRACERS_ImplVertAdv = /* implicit vert. advection flag */
(PID.TID 0000.0001)                   F
(PID.TID 0000.0001)     ;
(PID.TID 0000.0001) PTRACERS_diffKh = /* Laplacian Diffusivity */
(PID.TID 0000.0001)                 0.000000000000000E+00
(PID.TID 0000.0001)     ;
(PID.TID 0000.0001) PTRACERS_diffK4 = /* Biharmonic Diffusivity */
(PID.TID 0000.0001)                 0.000000000000000E+00
(PID.TID 0000.0001)     ;
(PID.TID 0000.0001) PTRACERS_diffKrNr = /* Vertical Diffusivity */
(PID.TID 0000.0001)    15 @  1.000000000000000E-05              /* K =  1: 15 */
(PID.TID 0000.0001)     ;
(PID.TID 0000.0001) PTRACERS_useGMRedi = /* apply GM-Redi */
(PID.TID 0000.0001)                   T
(PID.TID 0000.0001)     ;
(PID.TID 0000.0001) PTRACERS_useDWNSLP = /* apply DOWN-SLOPE Flow */
(PID.TID 0000.0001)                   F
(PID.TID 0000.0001)     ;
(PID.TID 0000.0001) PTRACERS_useKPP = /* apply KPP scheme */
(PID.TID 0000.0001)                   F
(PID.TID 0000.0001)     ;
(PID.TID 0000.0001) PTRACERS_ref = /* Reference vertical profile */
(PID.TID 0000.0001)    15 @  0.000000000000000E+00              /* K =  1: 15 */
(PID.TID 0000.0001)     ;
(PID.TID 0000.0001) PTRACERS_EvPrRn =/* tracer conc. in Evap. & Rain */
(PID.TID 0000.0001)                 1.234567000000000E+05
(PID.TID 0000.0001)     ;
(PID.TID 0000.0001)  -----------------------------------
(PID.TID 0000.0001)  tracer number :    9
(PID.TID 0000.0001) PTRACERS_names = /* Tracer short name */
(PID.TID 0000.0001)               'DON'
(PID.TID 0000.0001)     ;
(PID.TID 0000.0001) PTRACERS_long_names = /* Tracer long name */
(PID.TID 0000.0001)               ''
(PID.TID 0000.0001)     ;
(PID.TID 0000.0001) PTRACERS_ioLabel = /* tracer IO Label */
(PID.TID 0000.0001)               '09'
(PID.TID 0000.0001)     ;
(PID.TID 0000.0001) PTRACERS_advScheme = /* Advection Scheme */
(PID.TID 0000.0001)                      33
(PID.TID 0000.0001)     ;
(PID.TID 0000.0001) PTRACERS_SOM_Advection = /* tracer uses SOM advection scheme */
(PID.TID 0000.0001)                   F
(PID.TID 0000.0001)     ;
(PID.TID 0000.0001) PTRACERS_ImplVertAdv = /* implicit vert. advection flag */
(PID.TID 0000.0001)                   F
(PID.TID 0000.0001)     ;
(PID.TID 0000.0001) PTRACERS_diffKh = /* Laplacian Diffusivity */
(PID.TID 0000.0001)                 0.000000000000000E+00
(PID.TID 0000.0001)     ;
(PID.TID 0000.0001) PTRACERS_diffK4 = /* Biharmonic Diffusivity */
(PID.TID 0000.0001)                 0.000000000000000E+00
(PID.TID 0000.0001)     ;
(PID.TID 0000.0001) PTRACERS_diffKrNr = /* Vertical Diffusivity */
(PID.TID 0000.0001)    15 @  1.000000000000000E-05              /* K =  1: 15 */
(PID.TID 0000.0001)     ;
(PID.TID 0000.0001) PTRACERS_useGMRedi = /* apply GM-Redi */
(PID.TID 0000.0001)                   T
(PID.TID 0000.0001)     ;
(PID.TID 0000.0001) PTRACERS_useDWNSLP = /* apply DOWN-SLOPE Flow */
(PID.TID 0000.0001)                   F
(PID.TID 0000.0001)     ;
(PID.TID 0000.0001) PTRACERS_useKPP = /* apply KPP scheme */
(PID.TID 0000.0001)                   F
(PID.TID 0000.0001)     ;
(PID.TID 0000.0001) PTRACERS_ref = /* Reference vertical profile */
(PID.TID 0000.0001)    15 @  0.000000000000000E+00              /* K =  1: 15 */
(PID.TID 0000.0001)     ;
(PID.TID 0000.0001) PTRACERS_EvPrRn =/* tracer conc. in Evap. & Rain */
(PID.TID 0000.0001)                 1.234567000000000E+05
(PID.TID 0000.0001)     ;
(PID.TID 0000.0001)  -----------------------------------
(PID.TID 0000.0001)  tracer number :   10
(PID.TID 0000.0001) PTRACERS_names = /* Tracer short name */
(PID.TID 0000.0001)               'DOP'
(PID.TID 0000.0001)     ;
(PID.TID 0000.0001) PTRACERS_long_names = /* Tracer long name */
(PID.TID 0000.0001)               ''
(PID.TID 0000.0001)     ;
(PID.TID 0000.0001) PTRACERS_ioLabel = /* tracer IO Label */
(PID.TID 0000.0001)               '10'
(PID.TID 0000.0001)     ;
(PID.TID 0000.0001) PTRACERS_advScheme = /* Advection Scheme */
(PID.TID 0000.0001)                      33
(PID.TID 0000.0001)     ;
(PID.TID 0000.0001) PTRACERS_SOM_Advection = /* tracer uses SOM advection scheme */
(PID.TID 0000.0001)                   F
(PID.TID 0000.0001)     ;
(PID.TID 0000.0001) PTRACERS_ImplVertAdv = /* implicit vert. advection flag */
(PID.TID 0000.0001)                   F
(PID.TID 0000.0001)     ;
(PID.TID 0000.0001) PTRACERS_diffKh = /* Laplacian Diffusivity */
(PID.TID 0000.0001)                 0.000000000000000E+00
(PID.TID 0000.0001)     ;
(PID.TID 0000.0001) PTRACERS_diffK4 = /* Biharmonic Diffusivity */
(PID.TID 0000.0001)                 0.000000000000000E+00
(PID.TID 0000.0001)     ;
(PID.TID 0000.0001) PTRACERS_diffKrNr = /* Vertical Diffusivity */
(PID.TID 0000.0001)    15 @  1.000000000000000E-05              /* K =  1: 15 */
(PID.TID 0000.0001)     ;
(PID.TID 0000.0001) PTRACERS_useGMRedi = /* apply GM-Redi */
(PID.TID 0000.0001)                   T
(PID.TID 0000.0001)     ;
(PID.TID 0000.0001) PTRACERS_useDWNSLP = /* apply DOWN-SLOPE Flow */
(PID.TID 0000.0001)                   F
(PID.TID 0000.0001)     ;
(PID.TID 0000.0001) PTRACERS_useKPP = /* apply KPP scheme */
(PID.TID 0000.0001)                   F
(PID.TID 0000.0001)     ;
(PID.TID 0000.0001) PTRACERS_ref = /* Reference vertical profile */
(PID.TID 0000.0001)    15 @  0.000000000000000E+00              /* K =  1: 15 */
(PID.TID 0000.0001)     ;
(PID.TID 0000.0001) PTRACERS_EvPrRn =/* tracer conc. in Evap. & Rain */
(PID.TID 0000.0001)                 1.234567000000000E+05
(PID.TID 0000.0001)     ;
(PID.TID 0000.0001)  -----------------------------------
(PID.TID 0000.0001)  tracer number :   11
(PID.TID 0000.0001) PTRACERS_names = /* Tracer short name */
(PID.TID 0000.0001)               'DOFe'
(PID.TID 0000.0001)     ;
(PID.TID 0000.0001) PTRACERS_long_names = /* Tracer long name */
(PID.TID 0000.0001)               ''
(PID.TID 0000.0001)     ;
(PID.TID 0000.0001) PTRACERS_ioLabel = /* tracer IO Label */
(PID.TID 0000.0001)               '11'
(PID.TID 0000.0001)     ;
(PID.TID 0000.0001) PTRACERS_advScheme = /* Advection Scheme */
(PID.TID 0000.0001)                      33
(PID.TID 0000.0001)     ;
(PID.TID 0000.0001) PTRACERS_SOM_Advection = /* tracer uses SOM advection scheme */
(PID.TID 0000.0001)                   F
(PID.TID 0000.0001)     ;
(PID.TID 0000.0001) PTRACERS_ImplVertAdv = /* implicit vert. advection flag */
(PID.TID 0000.0001)                   F
(PID.TID 0000.0001)     ;
(PID.TID 0000.0001) PTRACERS_diffKh = /* Laplacian Diffusivity */
(PID.TID 0000.0001)                 0.000000000000000E+00
(PID.TID 0000.0001)     ;
(PID.TID 0000.0001) PTRACERS_diffK4 = /* Biharmonic Diffusivity */
(PID.TID 0000.0001)                 0.000000000000000E+00
(PID.TID 0000.0001)     ;
(PID.TID 0000.0001) PTRACERS_diffKrNr = /* Vertical Diffusivity */
(PID.TID 0000.0001)    15 @  1.000000000000000E-05              /* K =  1: 15 */
(PID.TID 0000.0001)     ;
(PID.TID 0000.0001) PTRACERS_useGMRedi = /* apply GM-Redi */
(PID.TID 0000.0001)                   T
(PID.TID 0000.0001)     ;
(PID.TID 0000.0001) PTRACERS_useDWNSLP = /* apply DOWN-SLOPE Flow */
(PID.TID 0000.0001)                   F
(PID.TID 0000.0001)     ;
(PID.TID 0000.0001) PTRACERS_useKPP = /* apply KPP scheme */
(PID.TID 0000.0001)                   F
(PID.TID 0000.0001)     ;
(PID.TID 0000.0001) PTRACERS_ref = /* Reference vertical profile */
(PID.TID 0000.0001)    15 @  0.000000000000000E+00              /* K =  1: 15 */
(PID.TID 0000.0001)     ;
(PID.TID 0000.0001) PTRACERS_EvPrRn =/* tracer conc. in Evap. & Rain */
(PID.TID 0000.0001)                 1.234567000000000E+05
(PID.TID 0000.0001)     ;
(PID.TID 0000.0001)  -----------------------------------
(PID.TID 0000.0001)  tracer number :   12
(PID.TID 0000.0001) PTRACERS_names = /* Tracer short name */
(PID.TID 0000.0001)               'POC'
(PID.TID 0000.0001)     ;
(PID.TID 0000.0001) PTRACERS_long_names = /* Tracer long name */
(PID.TID 0000.0001)               ''
(PID.TID 0000.0001)     ;
(PID.TID 0000.0001) PTRACERS_ioLabel = /* tracer IO Label */
(PID.TID 0000.0001)               '12'
(PID.TID 0000.0001)     ;
(PID.TID 0000.0001) PTRACERS_advScheme = /* Advection Scheme */
(PID.TID 0000.0001)                      33
(PID.TID 0000.0001)     ;
(PID.TID 0000.0001) PTRACERS_SOM_Advection = /* tracer uses SOM advection scheme */
(PID.TID 0000.0001)                   F
(PID.TID 0000.0001)     ;
(PID.TID 0000.0001) PTRACERS_ImplVertAdv = /* implicit vert. advection flag */
(PID.TID 0000.0001)                   F
(PID.TID 0000.0001)     ;
(PID.TID 0000.0001) PTRACERS_diffKh = /* Laplacian Diffusivity */
(PID.TID 0000.0001)                 0.000000000000000E+00
(PID.TID 0000.0001)     ;
(PID.TID 0000.0001) PTRACERS_diffK4 = /* Biharmonic Diffusivity */
(PID.TID 0000.0001)                 0.000000000000000E+00
(PID.TID 0000.0001)     ;
(PID.TID 0000.0001) PTRACERS_diffKrNr = /* Vertical Diffusivity */
(PID.TID 0000.0001)    15 @  1.000000000000000E-05              /* K =  1: 15 */
(PID.TID 0000.0001)     ;
(PID.TID 0000.0001) PTRACERS_useGMRedi = /* apply GM-Redi */
(PID.TID 0000.0001)                   T
(PID.TID 0000.0001)     ;
(PID.TID 0000.0001) PTRACERS_useDWNSLP = /* apply DOWN-SLOPE Flow */
(PID.TID 0000.0001)                   F
(PID.TID 0000.0001)     ;
(PID.TID 0000.0001) PTRACERS_useKPP = /* apply KPP scheme */
(PID.TID 0000.0001)                   F
(PID.TID 0000.0001)     ;
(PID.TID 0000.0001) PTRACERS_ref = /* Reference vertical profile */
(PID.TID 0000.0001)    15 @  0.000000000000000E+00              /* K =  1: 15 */
(PID.TID 0000.0001)     ;
(PID.TID 0000.0001) PTRACERS_EvPrRn =/* tracer conc. in Evap. & Rain */
(PID.TID 0000.0001)                 1.234567000000000E+05
(PID.TID 0000.0001)     ;
(PID.TID 0000.0001)  -----------------------------------
(PID.TID 0000.0001)  tracer number :   13
(PID.TID 0000.0001) PTRACERS_names = /* Tracer short name */
(PID.TID 0000.0001)               'PON'
(PID.TID 0000.0001)     ;
(PID.TID 0000.0001) PTRACERS_long_names = /* Tracer long name */
(PID.TID 0000.0001)               ''
(PID.TID 0000.0001)     ;
(PID.TID 0000.0001) PTRACERS_ioLabel = /* tracer IO Label */
(PID.TID 0000.0001)               '13'
(PID.TID 0000.0001)     ;
(PID.TID 0000.0001) PTRACERS_advScheme = /* Advection Scheme */
(PID.TID 0000.0001)                      33
(PID.TID 0000.0001)     ;
(PID.TID 0000.0001) PTRACERS_SOM_Advection = /* tracer uses SOM advection scheme */
(PID.TID 0000.0001)                   F
(PID.TID 0000.0001)     ;
(PID.TID 0000.0001) PTRACERS_ImplVertAdv = /* implicit vert. advection flag */
(PID.TID 0000.0001)                   F
(PID.TID 0000.0001)     ;
(PID.TID 0000.0001) PTRACERS_diffKh = /* Laplacian Diffusivity */
(PID.TID 0000.0001)                 0.000000000000000E+00
(PID.TID 0000.0001)     ;
(PID.TID 0000.0001) PTRACERS_diffK4 = /* Biharmonic Diffusivity */
(PID.TID 0000.0001)                 0.000000000000000E+00
(PID.TID 0000.0001)     ;
(PID.TID 0000.0001) PTRACERS_diffKrNr = /* Vertical Diffusivity */
(PID.TID 0000.0001)    15 @  1.000000000000000E-05              /* K =  1: 15 */
(PID.TID 0000.0001)     ;
(PID.TID 0000.0001) PTRACERS_useGMRedi = /* apply GM-Redi */
(PID.TID 0000.0001)                   T
(PID.TID 0000.0001)     ;
(PID.TID 0000.0001) PTRACERS_useDWNSLP = /* apply DOWN-SLOPE Flow */
(PID.TID 0000.0001)                   F
(PID.TID 0000.0001)     ;
(PID.TID 0000.0001) PTRACERS_useKPP = /* apply KPP scheme */
(PID.TID 0000.0001)                   F
(PID.TID 0000.0001)     ;
(PID.TID 0000.0001) PTRACERS_ref = /* Reference vertical profile */
(PID.TID 0000.0001)    15 @  0.000000000000000E+00              /* K =  1: 15 */
(PID.TID 0000.0001)     ;
(PID.TID 0000.0001) PTRACERS_EvPrRn =/* tracer conc. in Evap. & Rain */
(PID.TID 0000.0001)                 1.234567000000000E+05
(PID.TID 0000.0001)     ;
(PID.TID 0000.0001)  -----------------------------------
(PID.TID 0000.0001)  tracer number :   14
(PID.TID 0000.0001) PTRACERS_names = /* Tracer short name */
(PID.TID 0000.0001)               'POP'
(PID.TID 0000.0001)     ;
(PID.TID 0000.0001) PTRACERS_long_names = /* Tracer long name */
(PID.TID 0000.0001)               ''
(PID.TID 0000.0001)     ;
(PID.TID 0000.0001) PTRACERS_ioLabel = /* tracer IO Label */
(PID.TID 0000.0001)               '14'
(PID.TID 0000.0001)     ;
(PID.TID 0000.0001) PTRACERS_advScheme = /* Advection Scheme */
(PID.TID 0000.0001)                      33
(PID.TID 0000.0001)     ;
(PID.TID 0000.0001) PTRACERS_SOM_Advection = /* tracer uses SOM advection scheme */
(PID.TID 0000.0001)                   F
(PID.TID 0000.0001)     ;
(PID.TID 0000.0001) PTRACERS_ImplVertAdv = /* implicit vert. advection flag */
(PID.TID 0000.0001)                   F
(PID.TID 0000.0001)     ;
(PID.TID 0000.0001) PTRACERS_diffKh = /* Laplacian Diffusivity */
(PID.TID 0000.0001)                 0.000000000000000E+00
(PID.TID 0000.0001)     ;
(PID.TID 0000.0001) PTRACERS_diffK4 = /* Biharmonic Diffusivity */
(PID.TID 0000.0001)                 0.000000000000000E+00
(PID.TID 0000.0001)     ;
(PID.TID 0000.0001) PTRACERS_diffKrNr = /* Vertical Diffusivity */
(PID.TID 0000.0001)    15 @  1.000000000000000E-05              /* K =  1: 15 */
(PID.TID 0000.0001)     ;
(PID.TID 0000.0001) PTRACERS_useGMRedi = /* apply GM-Redi */
(PID.TID 0000.0001)                   T
(PID.TID 0000.0001)     ;
(PID.TID 0000.0001) PTRACERS_useDWNSLP = /* apply DOWN-SLOPE Flow */
(PID.TID 0000.0001)                   F
(PID.TID 0000.0001)     ;
(PID.TID 0000.0001) PTRACERS_useKPP = /* apply KPP scheme */
(PID.TID 0000.0001)                   F
(PID.TID 0000.0001)     ;
(PID.TID 0000.0001) PTRACERS_ref = /* Reference vertical profile */
(PID.TID 0000.0001)    15 @  0.000000000000000E+00              /* K =  1: 15 */
(PID.TID 0000.0001)     ;
(PID.TID 0000.0001) PTRACERS_EvPrRn =/* tracer conc. in Evap. & Rain */
(PID.TID 0000.0001)                 1.234567000000000E+05
(PID.TID 0000.0001)     ;
(PID.TID 0000.0001)  -----------------------------------
(PID.TID 0000.0001)  tracer number :   15
(PID.TID 0000.0001) PTRACERS_names = /* Tracer short name */
(PID.TID 0000.0001)               'POSi'
(PID.TID 0000.0001)     ;
(PID.TID 0000.0001) PTRACERS_long_names = /* Tracer long name */
(PID.TID 0000.0001)               ''
(PID.TID 0000.0001)     ;
(PID.TID 0000.0001) PTRACERS_ioLabel = /* tracer IO Label */
(PID.TID 0000.0001)               '15'
(PID.TID 0000.0001)     ;
(PID.TID 0000.0001) PTRACERS_advScheme = /* Advection Scheme */
(PID.TID 0000.0001)                      33
(PID.TID 0000.0001)     ;
(PID.TID 0000.0001) PTRACERS_SOM_Advection = /* tracer uses SOM advection scheme */
(PID.TID 0000.0001)                   F
(PID.TID 0000.0001)     ;
(PID.TID 0000.0001) PTRACERS_ImplVertAdv = /* implicit vert. advection flag */
(PID.TID 0000.0001)                   F
(PID.TID 0000.0001)     ;
(PID.TID 0000.0001) PTRACERS_diffKh = /* Laplacian Diffusivity */
(PID.TID 0000.0001)                 0.000000000000000E+00
(PID.TID 0000.0001)     ;
(PID.TID 0000.0001) PTRACERS_diffK4 = /* Biharmonic Diffusivity */
(PID.TID 0000.0001)                 0.000000000000000E+00
(PID.TID 0000.0001)     ;
(PID.TID 0000.0001) PTRACERS_diffKrNr = /* Vertical Diffusivity */
(PID.TID 0000.0001)    15 @  1.000000000000000E-05              /* K =  1: 15 */
(PID.TID 0000.0001)     ;
(PID.TID 0000.0001) PTRACERS_useGMRedi = /* apply GM-Redi */
(PID.TID 0000.0001)                   T
(PID.TID 0000.0001)     ;
(PID.TID 0000.0001) PTRACERS_useDWNSLP = /* apply DOWN-SLOPE Flow */
(PID.TID 0000.0001)                   F
(PID.TID 0000.0001)     ;
(PID.TID 0000.0001) PTRACERS_useKPP = /* apply KPP scheme */
(PID.TID 0000.0001)                   F
(PID.TID 0000.0001)     ;
(PID.TID 0000.0001) PTRACERS_ref = /* Reference vertical profile */
(PID.TID 0000.0001)    15 @  0.000000000000000E+00              /* K =  1: 15 */
(PID.TID 0000.0001)     ;
(PID.TID 0000.0001) PTRACERS_EvPrRn =/* tracer conc. in Evap. & Rain */
(PID.TID 0000.0001)                 1.234567000000000E+05
(PID.TID 0000.0001)     ;
(PID.TID 0000.0001)  -----------------------------------
(PID.TID 0000.0001)  tracer number :   16
(PID.TID 0000.0001) PTRACERS_names = /* Tracer short name */
(PID.TID 0000.0001)               'POFe'
(PID.TID 0000.0001)     ;
(PID.TID 0000.0001) PTRACERS_long_names = /* Tracer long name */
(PID.TID 0000.0001)               ''
(PID.TID 0000.0001)     ;
(PID.TID 0000.0001) PTRACERS_ioLabel = /* tracer IO Label */
(PID.TID 0000.0001)               '16'
(PID.TID 0000.0001)     ;
(PID.TID 0000.0001) PTRACERS_advScheme = /* Advection Scheme */
(PID.TID 0000.0001)                      33
(PID.TID 0000.0001)     ;
(PID.TID 0000.0001) PTRACERS_SOM_Advection = /* tracer uses SOM advection scheme */
(PID.TID 0000.0001)                   F
(PID.TID 0000.0001)     ;
(PID.TID 0000.0001) PTRACERS_ImplVertAdv = /* implicit vert. advection flag */
(PID.TID 0000.0001)                   F
(PID.TID 0000.0001)     ;
(PID.TID 0000.0001) PTRACERS_diffKh = /* Laplacian Diffusivity */
(PID.TID 0000.0001)                 0.000000000000000E+00
(PID.TID 0000.0001)     ;
(PID.TID 0000.0001) PTRACERS_diffK4 = /* Biharmonic Diffusivity */
(PID.TID 0000.0001)                 0.000000000000000E+00
(PID.TID 0000.0001)     ;
(PID.TID 0000.0001) PTRACERS_diffKrNr = /* Vertical Diffusivity */
(PID.TID 0000.0001)    15 @  1.000000000000000E-05              /* K =  1: 15 */
(PID.TID 0000.0001)     ;
(PID.TID 0000.0001) PTRACERS_useGMRedi = /* apply GM-Redi */
(PID.TID 0000.0001)                   T
(PID.TID 0000.0001)     ;
(PID.TID 0000.0001) PTRACERS_useDWNSLP = /* apply DOWN-SLOPE Flow */
(PID.TID 0000.0001)                   F
(PID.TID 0000.0001)     ;
(PID.TID 0000.0001) PTRACERS_useKPP = /* apply KPP scheme */
(PID.TID 0000.0001)                   F
(PID.TID 0000.0001)     ;
(PID.TID 0000.0001) PTRACERS_ref = /* Reference vertical profile */
(PID.TID 0000.0001)    15 @  0.000000000000000E+00              /* K =  1: 15 */
(PID.TID 0000.0001)     ;
(PID.TID 0000.0001) PTRACERS_EvPrRn =/* tracer conc. in Evap. & Rain */
(PID.TID 0000.0001)                 1.234567000000000E+05
(PID.TID 0000.0001)     ;
(PID.TID 0000.0001)  -----------------------------------
(PID.TID 0000.0001)  tracer number :   17
(PID.TID 0000.0001) PTRACERS_names = /* Tracer short name */
(PID.TID 0000.0001)               'PIC'
(PID.TID 0000.0001)     ;
(PID.TID 0000.0001) PTRACERS_long_names = /* Tracer long name */
(PID.TID 0000.0001)               ''
(PID.TID 0000.0001)     ;
(PID.TID 0000.0001) PTRACERS_ioLabel = /* tracer IO Label */
(PID.TID 0000.0001)               '17'
(PID.TID 0000.0001)     ;
(PID.TID 0000.0001) PTRACERS_advScheme = /* Advection Scheme */
(PID.TID 0000.0001)                      33
(PID.TID 0000.0001)     ;
(PID.TID 0000.0001) PTRACERS_SOM_Advection = /* tracer uses SOM advection scheme */
(PID.TID 0000.0001)                   F
(PID.TID 0000.0001)     ;
(PID.TID 0000.0001) PTRACERS_ImplVertAdv = /* implicit vert. advection flag */
(PID.TID 0000.0001)                   F
(PID.TID 0000.0001)     ;
(PID.TID 0000.0001) PTRACERS_diffKh = /* Laplacian Diffusivity */
(PID.TID 0000.0001)                 0.000000000000000E+00
(PID.TID 0000.0001)     ;
(PID.TID 0000.0001) PTRACERS_diffK4 = /* Biharmonic Diffusivity */
(PID.TID 0000.0001)                 0.000000000000000E+00
(PID.TID 0000.0001)     ;
(PID.TID 0000.0001) PTRACERS_diffKrNr = /* Vertical Diffusivity */
(PID.TID 0000.0001)    15 @  1.000000000000000E-05              /* K =  1: 15 */
(PID.TID 0000.0001)     ;
(PID.TID 0000.0001) PTRACERS_useGMRedi = /* apply GM-Redi */
(PID.TID 0000.0001)                   T
(PID.TID 0000.0001)     ;
(PID.TID 0000.0001) PTRACERS_useDWNSLP = /* apply DOWN-SLOPE Flow */
(PID.TID 0000.0001)                   F
(PID.TID 0000.0001)     ;
(PID.TID 0000.0001) PTRACERS_useKPP = /* apply KPP scheme */
(PID.TID 0000.0001)                   F
(PID.TID 0000.0001)     ;
(PID.TID 0000.0001) PTRACERS_ref = /* Reference vertical profile */
(PID.TID 0000.0001)    15 @  0.000000000000000E+00              /* K =  1: 15 */
(PID.TID 0000.0001)     ;
(PID.TID 0000.0001) PTRACERS_EvPrRn =/* tracer conc. in Evap. & Rain */
(PID.TID 0000.0001)                 1.234567000000000E+05
(PID.TID 0000.0001)     ;
(PID.TID 0000.0001)  -----------------------------------
(PID.TID 0000.0001)  tracer number :   18
(PID.TID 0000.0001) PTRACERS_names = /* Tracer short name */
(PID.TID 0000.0001)               'c01'
(PID.TID 0000.0001)     ;
(PID.TID 0000.0001) PTRACERS_long_names = /* Tracer long name */
(PID.TID 0000.0001)               ''
(PID.TID 0000.0001)     ;
(PID.TID 0000.0001) PTRACERS_ioLabel = /* tracer IO Label */
(PID.TID 0000.0001)               '18'
(PID.TID 0000.0001)     ;
(PID.TID 0000.0001) PTRACERS_advScheme = /* Advection Scheme */
(PID.TID 0000.0001)                      33
(PID.TID 0000.0001)     ;
(PID.TID 0000.0001) PTRACERS_SOM_Advection = /* tracer uses SOM advection scheme */
(PID.TID 0000.0001)                   F
(PID.TID 0000.0001)     ;
(PID.TID 0000.0001) PTRACERS_ImplVertAdv = /* implicit vert. advection flag */
(PID.TID 0000.0001)                   F
(PID.TID 0000.0001)     ;
(PID.TID 0000.0001) PTRACERS_diffKh = /* Laplacian Diffusivity */
(PID.TID 0000.0001)                 0.000000000000000E+00
(PID.TID 0000.0001)     ;
(PID.TID 0000.0001) PTRACERS_diffK4 = /* Biharmonic Diffusivity */
(PID.TID 0000.0001)                 0.000000000000000E+00
(PID.TID 0000.0001)     ;
(PID.TID 0000.0001) PTRACERS_diffKrNr = /* Vertical Diffusivity */
(PID.TID 0000.0001)    15 @  1.000000000000000E-05              /* K =  1: 15 */
(PID.TID 0000.0001)     ;
(PID.TID 0000.0001) PTRACERS_useGMRedi = /* apply GM-Redi */
(PID.TID 0000.0001)                   T
(PID.TID 0000.0001)     ;
(PID.TID 0000.0001) PTRACERS_useDWNSLP = /* apply DOWN-SLOPE Flow */
(PID.TID 0000.0001)                   F
(PID.TID 0000.0001)     ;
(PID.TID 0000.0001) PTRACERS_useKPP = /* apply KPP scheme */
(PID.TID 0000.0001)                   F
(PID.TID 0000.0001)     ;
(PID.TID 0000.0001) PTRACERS_ref = /* Reference vertical profile */
(PID.TID 0000.0001)    15 @  0.000000000000000E+00              /* K =  1: 15 */
(PID.TID 0000.0001)     ;
(PID.TID 0000.0001) PTRACERS_EvPrRn =/* tracer conc. in Evap. & Rain */
(PID.TID 0000.0001)                 1.234567000000000E+05
(PID.TID 0000.0001)     ;
(PID.TID 0000.0001)  -----------------------------------
(PID.TID 0000.0001)  tracer number :   19
(PID.TID 0000.0001) PTRACERS_names = /* Tracer short name */
(PID.TID 0000.0001)               'c02'
(PID.TID 0000.0001)     ;
(PID.TID 0000.0001) PTRACERS_long_names = /* Tracer long name */
(PID.TID 0000.0001)               ''
(PID.TID 0000.0001)     ;
(PID.TID 0000.0001) PTRACERS_ioLabel = /* tracer IO Label */
(PID.TID 0000.0001)               '19'
(PID.TID 0000.0001)     ;
(PID.TID 0000.0001) PTRACERS_advScheme = /* Advection Scheme */
(PID.TID 0000.0001)                      33
(PID.TID 0000.0001)     ;
(PID.TID 0000.0001) PTRACERS_SOM_Advection = /* tracer uses SOM advection scheme */
(PID.TID 0000.0001)                   F
(PID.TID 0000.0001)     ;
(PID.TID 0000.0001) PTRACERS_ImplVertAdv = /* implicit vert. advection flag */
(PID.TID 0000.0001)                   F
(PID.TID 0000.0001)     ;
(PID.TID 0000.0001) PTRACERS_diffKh = /* Laplacian Diffusivity */
(PID.TID 0000.0001)                 0.000000000000000E+00
(PID.TID 0000.0001)     ;
(PID.TID 0000.0001) PTRACERS_diffK4 = /* Biharmonic Diffusivity */
(PID.TID 0000.0001)                 0.000000000000000E+00
(PID.TID 0000.0001)     ;
(PID.TID 0000.0001) PTRACERS_diffKrNr = /* Vertical Diffusivity */
(PID.TID 0000.0001)    15 @  1.000000000000000E-05              /* K =  1: 15 */
(PID.TID 0000.0001)     ;
(PID.TID 0000.0001) PTRACERS_useGMRedi = /* apply GM-Redi */
(PID.TID 0000.0001)                   T
(PID.TID 0000.0001)     ;
(PID.TID 0000.0001) PTRACERS_useDWNSLP = /* apply DOWN-SLOPE Flow */
(PID.TID 0000.0001)                   F
(PID.TID 0000.0001)     ;
(PID.TID 0000.0001) PTRACERS_useKPP = /* apply KPP scheme */
(PID.TID 0000.0001)                   F
(PID.TID 0000.0001)     ;
(PID.TID 0000.0001) PTRACERS_ref = /* Reference vertical profile */
(PID.TID 0000.0001)    15 @  0.000000000000000E+00              /* K =  1: 15 */
(PID.TID 0000.0001)     ;
(PID.TID 0000.0001) PTRACERS_EvPrRn =/* tracer conc. in Evap. & Rain */
(PID.TID 0000.0001)                 1.234567000000000E+05
(PID.TID 0000.0001)     ;
(PID.TID 0000.0001)  -----------------------------------
(PID.TID 0000.0001)  tracer number :   20
(PID.TID 0000.0001) PTRACERS_names = /* Tracer short name */
(PID.TID 0000.0001)               'c03'
(PID.TID 0000.0001)     ;
(PID.TID 0000.0001) PTRACERS_long_names = /* Tracer long name */
(PID.TID 0000.0001)               ''
(PID.TID 0000.0001)     ;
(PID.TID 0000.0001) PTRACERS_ioLabel = /* tracer IO Label */
(PID.TID 0000.0001)               '20'
(PID.TID 0000.0001)     ;
(PID.TID 0000.0001) PTRACERS_advScheme = /* Advection Scheme */
(PID.TID 0000.0001)                      33
(PID.TID 0000.0001)     ;
(PID.TID 0000.0001) PTRACERS_SOM_Advection = /* tracer uses SOM advection scheme */
(PID.TID 0000.0001)                   F
(PID.TID 0000.0001)     ;
(PID.TID 0000.0001) PTRACERS_ImplVertAdv = /* implicit vert. advection flag */
(PID.TID 0000.0001)                   F
(PID.TID 0000.0001)     ;
(PID.TID 0000.0001) PTRACERS_diffKh = /* Laplacian Diffusivity */
(PID.TID 0000.0001)                 0.000000000000000E+00
(PID.TID 0000.0001)     ;
(PID.TID 0000.0001) PTRACERS_diffK4 = /* Biharmonic Diffusivity */
(PID.TID 0000.0001)                 0.000000000000000E+00
(PID.TID 0000.0001)     ;
(PID.TID 0000.0001) PTRACERS_diffKrNr = /* Vertical Diffusivity */
(PID.TID 0000.0001)    15 @  1.000000000000000E-05              /* K =  1: 15 */
(PID.TID 0000.0001)     ;
(PID.TID 0000.0001) PTRACERS_useGMRedi = /* apply GM-Redi */
(PID.TID 0000.0001)                   T
(PID.TID 0000.0001)     ;
(PID.TID 0000.0001) PTRACERS_useDWNSLP = /* apply DOWN-SLOPE Flow */
(PID.TID 0000.0001)                   F
(PID.TID 0000.0001)     ;
(PID.TID 0000.0001) PTRACERS_useKPP = /* apply KPP scheme */
(PID.TID 0000.0001)                   F
(PID.TID 0000.0001)     ;
(PID.TID 0000.0001) PTRACERS_ref = /* Reference vertical profile */
(PID.TID 0000.0001)    15 @  0.000000000000000E+00              /* K =  1: 15 */
(PID.TID 0000.0001)     ;
(PID.TID 0000.0001) PTRACERS_EvPrRn =/* tracer conc. in Evap. & Rain */
(PID.TID 0000.0001)                 1.234567000000000E+05
(PID.TID 0000.0001)     ;
(PID.TID 0000.0001)  -----------------------------------
(PID.TID 0000.0001)  tracer number :   21
(PID.TID 0000.0001) PTRACERS_names = /* Tracer short name */
(PID.TID 0000.0001)               'c04'
(PID.TID 0000.0001)     ;
(PID.TID 0000.0001) PTRACERS_long_names = /* Tracer long name */
(PID.TID 0000.0001)               ''
(PID.TID 0000.0001)     ;
(PID.TID 0000.0001) PTRACERS_ioLabel = /* tracer IO Label */
(PID.TID 0000.0001)               '21'
(PID.TID 0000.0001)     ;
(PID.TID 0000.0001) PTRACERS_advScheme = /* Advection Scheme */
(PID.TID 0000.0001)                      33
(PID.TID 0000.0001)     ;
(PID.TID 0000.0001) PTRACERS_SOM_Advection = /* tracer uses SOM advection scheme */
(PID.TID 0000.0001)                   F
(PID.TID 0000.0001)     ;
(PID.TID 0000.0001) PTRACERS_ImplVertAdv = /* implicit vert. advection flag */
(PID.TID 0000.0001)                   F
(PID.TID 0000.0001)     ;
(PID.TID 0000.0001) PTRACERS_diffKh = /* Laplacian Diffusivity */
(PID.TID 0000.0001)                 0.000000000000000E+00
(PID.TID 0000.0001)     ;
(PID.TID 0000.0001) PTRACERS_diffK4 = /* Biharmonic Diffusivity */
(PID.TID 0000.0001)                 0.000000000000000E+00
(PID.TID 0000.0001)     ;
(PID.TID 0000.0001) PTRACERS_diffKrNr = /* Vertical Diffusivity */
(PID.TID 0000.0001)    15 @  1.000000000000000E-05              /* K =  1: 15 */
(PID.TID 0000.0001)     ;
(PID.TID 0000.0001) PTRACERS_useGMRedi = /* apply GM-Redi */
(PID.TID 0000.0001)                   T
(PID.TID 0000.0001)     ;
(PID.TID 0000.0001) PTRACERS_useDWNSLP = /* apply DOWN-SLOPE Flow */
(PID.TID 0000.0001)                   F
(PID.TID 0000.0001)     ;
(PID.TID 0000.0001) PTRACERS_useKPP = /* apply KPP scheme */
(PID.TID 0000.0001)                   F
(PID.TID 0000.0001)     ;
(PID.TID 0000.0001) PTRACERS_ref = /* Reference vertical profile */
(PID.TID 0000.0001)    15 @  0.000000000000000E+00              /* K =  1: 15 */
(PID.TID 0000.0001)     ;
(PID.TID 0000.0001) PTRACERS_EvPrRn =/* tracer conc. in Evap. & Rain */
(PID.TID 0000.0001)                 1.234567000000000E+05
(PID.TID 0000.0001)     ;
(PID.TID 0000.0001)  -----------------------------------
(PID.TID 0000.0001)  tracer number :   22
(PID.TID 0000.0001) PTRACERS_names = /* Tracer short name */
(PID.TID 0000.0001)               'c05'
(PID.TID 0000.0001)     ;
(PID.TID 0000.0001) PTRACERS_long_names = /* Tracer long name */
(PID.TID 0000.0001)               ''
(PID.TID 0000.0001)     ;
(PID.TID 0000.0001) PTRACERS_ioLabel = /* tracer IO Label */
(PID.TID 0000.0001)               '22'
(PID.TID 0000.0001)     ;
(PID.TID 0000.0001) PTRACERS_advScheme = /* Advection Scheme */
(PID.TID 0000.0001)                      33
(PID.TID 0000.0001)     ;
(PID.TID 0000.0001) PTRACERS_SOM_Advection = /* tracer uses SOM advection scheme */
(PID.TID 0000.0001)                   F
(PID.TID 0000.0001)     ;
(PID.TID 0000.0001) PTRACERS_ImplVertAdv = /* implicit vert. advection flag */
(PID.TID 0000.0001)                   F
(PID.TID 0000.0001)     ;
(PID.TID 0000.0001) PTRACERS_diffKh = /* Laplacian Diffusivity */
(PID.TID 0000.0001)                 0.000000000000000E+00
(PID.TID 0000.0001)     ;
(PID.TID 0000.0001) PTRACERS_diffK4 = /* Biharmonic Diffusivity */
(PID.TID 0000.0001)                 0.000000000000000E+00
(PID.TID 0000.0001)     ;
(PID.TID 0000.0001) PTRACERS_diffKrNr = /* Vertical Diffusivity */
(PID.TID 0000.0001)    15 @  1.000000000000000E-05              /* K =  1: 15 */
(PID.TID 0000.0001)     ;
(PID.TID 0000.0001) PTRACERS_useGMRedi = /* apply GM-Redi */
(PID.TID 0000.0001)                   T
(PID.TID 0000.0001)     ;
(PID.TID 0000.0001) PTRACERS_useDWNSLP = /* apply DOWN-SLOPE Flow */
(PID.TID 0000.0001)                   F
(PID.TID 0000.0001)     ;
(PID.TID 0000.0001) PTRACERS_useKPP = /* apply KPP scheme */
(PID.TID 0000.0001)                   F
(PID.TID 0000.0001)     ;
(PID.TID 0000.0001) PTRACERS_ref = /* Reference vertical profile */
(PID.TID 0000.0001)    15 @  0.000000000000000E+00              /* K =  1: 15 */
(PID.TID 0000.0001)     ;
(PID.TID 0000.0001) PTRACERS_EvPrRn =/* tracer conc. in Evap. & Rain */
(PID.TID 0000.0001)                 1.234567000000000E+05
(PID.TID 0000.0001)     ;
(PID.TID 0000.0001)  -----------------------------------
(PID.TID 0000.0001)  tracer number :   23
(PID.TID 0000.0001) PTRACERS_names = /* Tracer short name */
(PID.TID 0000.0001)               'c06'
(PID.TID 0000.0001)     ;
(PID.TID 0000.0001) PTRACERS_long_names = /* Tracer long name */
(PID.TID 0000.0001)               ''
(PID.TID 0000.0001)     ;
(PID.TID 0000.0001) PTRACERS_ioLabel = /* tracer IO Label */
(PID.TID 0000.0001)               '23'
(PID.TID 0000.0001)     ;
(PID.TID 0000.0001) PTRACERS_advScheme = /* Advection Scheme */
(PID.TID 0000.0001)                      33
(PID.TID 0000.0001)     ;
(PID.TID 0000.0001) PTRACERS_SOM_Advection = /* tracer uses SOM advection scheme */
(PID.TID 0000.0001)                   F
(PID.TID 0000.0001)     ;
(PID.TID 0000.0001) PTRACERS_ImplVertAdv = /* implicit vert. advection flag */
(PID.TID 0000.0001)                   F
(PID.TID 0000.0001)     ;
(PID.TID 0000.0001) PTRACERS_diffKh = /* Laplacian Diffusivity */
(PID.TID 0000.0001)                 0.000000000000000E+00
(PID.TID 0000.0001)     ;
(PID.TID 0000.0001) PTRACERS_diffK4 = /* Biharmonic Diffusivity */
(PID.TID 0000.0001)                 0.000000000000000E+00
(PID.TID 0000.0001)     ;
(PID.TID 0000.0001) PTRACERS_diffKrNr = /* Vertical Diffusivity */
(PID.TID 0000.0001)    15 @  1.000000000000000E-05              /* K =  1: 15 */
(PID.TID 0000.0001)     ;
(PID.TID 0000.0001) PTRACERS_useGMRedi = /* apply GM-Redi */
(PID.TID 0000.0001)                   T
(PID.TID 0000.0001)     ;
(PID.TID 0000.0001) PTRACERS_useDWNSLP = /* apply DOWN-SLOPE Flow */
(PID.TID 0000.0001)                   F
(PID.TID 0000.0001)     ;
(PID.TID 0000.0001) PTRACERS_useKPP = /* apply KPP scheme */
(PID.TID 0000.0001)                   F
(PID.TID 0000.0001)     ;
(PID.TID 0000.0001) PTRACERS_ref = /* Reference vertical profile */
(PID.TID 0000.0001)    15 @  0.000000000000000E+00              /* K =  1: 15 */
(PID.TID 0000.0001)     ;
(PID.TID 0000.0001) PTRACERS_EvPrRn =/* tracer conc. in Evap. & Rain */
(PID.TID 0000.0001)                 1.234567000000000E+05
(PID.TID 0000.0001)     ;
(PID.TID 0000.0001)  -----------------------------------
(PID.TID 0000.0001)  tracer number :   24
(PID.TID 0000.0001) PTRACERS_names = /* Tracer short name */
(PID.TID 0000.0001)               'c07'
(PID.TID 0000.0001)     ;
(PID.TID 0000.0001) PTRACERS_long_names = /* Tracer long name */
(PID.TID 0000.0001)               ''
(PID.TID 0000.0001)     ;
(PID.TID 0000.0001) PTRACERS_ioLabel = /* tracer IO Label */
(PID.TID 0000.0001)               '24'
(PID.TID 0000.0001)     ;
(PID.TID 0000.0001) PTRACERS_advScheme = /* Advection Scheme */
(PID.TID 0000.0001)                      33
(PID.TID 0000.0001)     ;
(PID.TID 0000.0001) PTRACERS_SOM_Advection = /* tracer uses SOM advection scheme */
(PID.TID 0000.0001)                   F
(PID.TID 0000.0001)     ;
(PID.TID 0000.0001) PTRACERS_ImplVertAdv = /* implicit vert. advection flag */
(PID.TID 0000.0001)                   F
(PID.TID 0000.0001)     ;
(PID.TID 0000.0001) PTRACERS_diffKh = /* Laplacian Diffusivity */
(PID.TID 0000.0001)                 0.000000000000000E+00
(PID.TID 0000.0001)     ;
(PID.TID 0000.0001) PTRACERS_diffK4 = /* Biharmonic Diffusivity */
(PID.TID 0000.0001)                 0.000000000000000E+00
(PID.TID 0000.0001)     ;
(PID.TID 0000.0001) PTRACERS_diffKrNr = /* Vertical Diffusivity */
(PID.TID 0000.0001)    15 @  1.000000000000000E-05              /* K =  1: 15 */
(PID.TID 0000.0001)     ;
(PID.TID 0000.0001) PTRACERS_useGMRedi = /* apply GM-Redi */
(PID.TID 0000.0001)                   T
(PID.TID 0000.0001)     ;
(PID.TID 0000.0001) PTRACERS_useDWNSLP = /* apply DOWN-SLOPE Flow */
(PID.TID 0000.0001)                   F
(PID.TID 0000.0001)     ;
(PID.TID 0000.0001) PTRACERS_useKPP = /* apply KPP scheme */
(PID.TID 0000.0001)                   F
(PID.TID 0000.0001)     ;
(PID.TID 0000.0001) PTRACERS_ref = /* Reference vertical profile */
(PID.TID 0000.0001)    15 @  0.000000000000000E+00              /* K =  1: 15 */
(PID.TID 0000.0001)     ;
(PID.TID 0000.0001) PTRACERS_EvPrRn =/* tracer conc. in Evap. & Rain */
(PID.TID 0000.0001)                 1.234567000000000E+05
(PID.TID 0000.0001)     ;
(PID.TID 0000.0001)  -----------------------------------
(PID.TID 0000.0001)  tracer number :   25
(PID.TID 0000.0001) PTRACERS_names = /* Tracer short name */
(PID.TID 0000.0001)               'c08'
(PID.TID 0000.0001)     ;
(PID.TID 0000.0001) PTRACERS_long_names = /* Tracer long name */
(PID.TID 0000.0001)               ''
(PID.TID 0000.0001)     ;
(PID.TID 0000.0001) PTRACERS_ioLabel = /* tracer IO Label */
(PID.TID 0000.0001)               '25'
(PID.TID 0000.0001)     ;
(PID.TID 0000.0001) PTRACERS_advScheme = /* Advection Scheme */
(PID.TID 0000.0001)                      33
(PID.TID 0000.0001)     ;
(PID.TID 0000.0001) PTRACERS_SOM_Advection = /* tracer uses SOM advection scheme */
(PID.TID 0000.0001)                   F
(PID.TID 0000.0001)     ;
(PID.TID 0000.0001) PTRACERS_ImplVertAdv = /* implicit vert. advection flag */
(PID.TID 0000.0001)                   F
(PID.TID 0000.0001)     ;
(PID.TID 0000.0001) PTRACERS_diffKh = /* Laplacian Diffusivity */
(PID.TID 0000.0001)                 0.000000000000000E+00
(PID.TID 0000.0001)     ;
(PID.TID 0000.0001) PTRACERS_diffK4 = /* Biharmonic Diffusivity */
(PID.TID 0000.0001)                 0.000000000000000E+00
(PID.TID 0000.0001)     ;
(PID.TID 0000.0001) PTRACERS_diffKrNr = /* Vertical Diffusivity */
(PID.TID 0000.0001)    15 @  1.000000000000000E-05              /* K =  1: 15 */
(PID.TID 0000.0001)     ;
(PID.TID 0000.0001) PTRACERS_useGMRedi = /* apply GM-Redi */
(PID.TID 0000.0001)                   T
(PID.TID 0000.0001)     ;
(PID.TID 0000.0001) PTRACERS_useDWNSLP = /* apply DOWN-SLOPE Flow */
(PID.TID 0000.0001)                   F
(PID.TID 0000.0001)     ;
(PID.TID 0000.0001) PTRACERS_useKPP = /* apply KPP scheme */
(PID.TID 0000.0001)                   F
(PID.TID 0000.0001)     ;
(PID.TID 0000.0001) PTRACERS_ref = /* Reference vertical profile */
(PID.TID 0000.0001)    15 @  0.000000000000000E+00              /* K =  1: 15 */
(PID.TID 0000.0001)     ;
(PID.TID 0000.0001) PTRACERS_EvPrRn =/* tracer conc. in Evap. & Rain */
(PID.TID 0000.0001)                 1.234567000000000E+05
(PID.TID 0000.0001)     ;
(PID.TID 0000.0001)  -----------------------------------
(PID.TID 0000.0001)  tracer number :   26
(PID.TID 0000.0001) PTRACERS_names = /* Tracer short name */
(PID.TID 0000.0001)               'c09'
(PID.TID 0000.0001)     ;
(PID.TID 0000.0001) PTRACERS_long_names = /* Tracer long name */
(PID.TID 0000.0001)               ''
(PID.TID 0000.0001)     ;
(PID.TID 0000.0001) PTRACERS_ioLabel = /* tracer IO Label */
(PID.TID 0000.0001)               '26'
(PID.TID 0000.0001)     ;
(PID.TID 0000.0001) PTRACERS_advScheme = /* Advection Scheme */
(PID.TID 0000.0001)                      33
(PID.TID 0000.0001)     ;
(PID.TID 0000.0001) PTRACERS_SOM_Advection = /* tracer uses SOM advection scheme */
(PID.TID 0000.0001)                   F
(PID.TID 0000.0001)     ;
(PID.TID 0000.0001) PTRACERS_ImplVertAdv = /* implicit vert. advection flag */
(PID.TID 0000.0001)                   F
(PID.TID 0000.0001)     ;
(PID.TID 0000.0001) PTRACERS_diffKh = /* Laplacian Diffusivity */
(PID.TID 0000.0001)                 0.000000000000000E+00
(PID.TID 0000.0001)     ;
(PID.TID 0000.0001) PTRACERS_diffK4 = /* Biharmonic Diffusivity */
(PID.TID 0000.0001)                 0.000000000000000E+00
(PID.TID 0000.0001)     ;
(PID.TID 0000.0001) PTRACERS_diffKrNr = /* Vertical Diffusivity */
(PID.TID 0000.0001)    15 @  1.000000000000000E-05              /* K =  1: 15 */
(PID.TID 0000.0001)     ;
(PID.TID 0000.0001) PTRACERS_useGMRedi = /* apply GM-Redi */
(PID.TID 0000.0001)                   T
(PID.TID 0000.0001)     ;
(PID.TID 0000.0001) PTRACERS_useDWNSLP = /* apply DOWN-SLOPE Flow */
(PID.TID 0000.0001)                   F
(PID.TID 0000.0001)     ;
(PID.TID 0000.0001) PTRACERS_useKPP = /* apply KPP scheme */
(PID.TID 0000.0001)                   F
(PID.TID 0000.0001)     ;
(PID.TID 0000.0001) PTRACERS_ref = /* Reference vertical profile */
(PID.TID 0000.0001)    15 @  0.000000000000000E+00              /* K =  1: 15 */
(PID.TID 0000.0001)     ;
(PID.TID 0000.0001) PTRACERS_EvPrRn =/* tracer conc. in Evap. & Rain */
(PID.TID 0000.0001)                 1.234567000000000E+05
(PID.TID 0000.0001)     ;
(PID.TID 0000.0001)  -----------------------------------
(PID.TID 0000.0001)  tracer number :   27
(PID.TID 0000.0001) PTRACERS_names = /* Tracer short name */
(PID.TID 0000.0001)               'c10'
(PID.TID 0000.0001)     ;
(PID.TID 0000.0001) PTRACERS_long_names = /* Tracer long name */
(PID.TID 0000.0001)               ''
(PID.TID 0000.0001)     ;
(PID.TID 0000.0001) PTRACERS_ioLabel = /* tracer IO Label */
(PID.TID 0000.0001)               '27'
(PID.TID 0000.0001)     ;
(PID.TID 0000.0001) PTRACERS_advScheme = /* Advection Scheme */
(PID.TID 0000.0001)                      33
(PID.TID 0000.0001)     ;
(PID.TID 0000.0001) PTRACERS_SOM_Advection = /* tracer uses SOM advection scheme */
(PID.TID 0000.0001)                   F
(PID.TID 0000.0001)     ;
(PID.TID 0000.0001) PTRACERS_ImplVertAdv = /* implicit vert. advection flag */
(PID.TID 0000.0001)                   F
(PID.TID 0000.0001)     ;
(PID.TID 0000.0001) PTRACERS_diffKh = /* Laplacian Diffusivity */
(PID.TID 0000.0001)                 0.000000000000000E+00
(PID.TID 0000.0001)     ;
(PID.TID 0000.0001) PTRACERS_diffK4 = /* Biharmonic Diffusivity */
(PID.TID 0000.0001)                 0.000000000000000E+00
(PID.TID 0000.0001)     ;
(PID.TID 0000.0001) PTRACERS_diffKrNr = /* Vertical Diffusivity */
(PID.TID 0000.0001)    15 @  1.000000000000000E-05              /* K =  1: 15 */
(PID.TID 0000.0001)     ;
(PID.TID 0000.0001) PTRACERS_useGMRedi = /* apply GM-Redi */
(PID.TID 0000.0001)                   T
(PID.TID 0000.0001)     ;
(PID.TID 0000.0001) PTRACERS_useDWNSLP = /* apply DOWN-SLOPE Flow */
(PID.TID 0000.0001)                   F
(PID.TID 0000.0001)     ;
(PID.TID 0000.0001) PTRACERS_useKPP = /* apply KPP scheme */
(PID.TID 0000.0001)                   F
(PID.TID 0000.0001)     ;
(PID.TID 0000.0001) PTRACERS_ref = /* Reference vertical profile */
(PID.TID 0000.0001)    15 @  0.000000000000000E+00              /* K =  1: 15 */
(PID.TID 0000.0001)     ;
(PID.TID 0000.0001) PTRACERS_EvPrRn =/* tracer conc. in Evap. & Rain */
(PID.TID 0000.0001)                 1.234567000000000E+05
(PID.TID 0000.0001)     ;
(PID.TID 0000.0001)  -----------------------------------
(PID.TID 0000.0001)  tracer number :   28
(PID.TID 0000.0001) PTRACERS_names = /* Tracer short name */
(PID.TID 0000.0001)               'c11'
(PID.TID 0000.0001)     ;
(PID.TID 0000.0001) PTRACERS_long_names = /* Tracer long name */
(PID.TID 0000.0001)               ''
(PID.TID 0000.0001)     ;
(PID.TID 0000.0001) PTRACERS_ioLabel = /* tracer IO Label */
(PID.TID 0000.0001)               '28'
(PID.TID 0000.0001)     ;
(PID.TID 0000.0001) PTRACERS_advScheme = /* Advection Scheme */
(PID.TID 0000.0001)                      33
(PID.TID 0000.0001)     ;
(PID.TID 0000.0001) PTRACERS_SOM_Advection = /* tracer uses SOM advection scheme */
(PID.TID 0000.0001)                   F
(PID.TID 0000.0001)     ;
(PID.TID 0000.0001) PTRACERS_ImplVertAdv = /* implicit vert. advection flag */
(PID.TID 0000.0001)                   F
(PID.TID 0000.0001)     ;
(PID.TID 0000.0001) PTRACERS_diffKh = /* Laplacian Diffusivity */
(PID.TID 0000.0001)                 0.000000000000000E+00
(PID.TID 0000.0001)     ;
(PID.TID 0000.0001) PTRACERS_diffK4 = /* Biharmonic Diffusivity */
(PID.TID 0000.0001)                 0.000000000000000E+00
(PID.TID 0000.0001)     ;
(PID.TID 0000.0001) PTRACERS_diffKrNr = /* Vertical Diffusivity */
(PID.TID 0000.0001)    15 @  1.000000000000000E-05              /* K =  1: 15 */
(PID.TID 0000.0001)     ;
(PID.TID 0000.0001) PTRACERS_useGMRedi = /* apply GM-Redi */
(PID.TID 0000.0001)                   T
(PID.TID 0000.0001)     ;
(PID.TID 0000.0001) PTRACERS_useDWNSLP = /* apply DOWN-SLOPE Flow */
(PID.TID 0000.0001)                   F
(PID.TID 0000.0001)     ;
(PID.TID 0000.0001) PTRACERS_useKPP = /* apply KPP scheme */
(PID.TID 0000.0001)                   F
(PID.TID 0000.0001)     ;
(PID.TID 0000.0001) PTRACERS_ref = /* Reference vertical profile */
(PID.TID 0000.0001)    15 @  0.000000000000000E+00              /* K =  1: 15 */
(PID.TID 0000.0001)     ;
(PID.TID 0000.0001) PTRACERS_EvPrRn =/* tracer conc. in Evap. & Rain */
(PID.TID 0000.0001)                 1.234567000000000E+05
(PID.TID 0000.0001)     ;
(PID.TID 0000.0001)  -----------------------------------
(PID.TID 0000.0001)  tracer number :   29
(PID.TID 0000.0001) PTRACERS_names = /* Tracer short name */
(PID.TID 0000.0001)               'c12'
(PID.TID 0000.0001)     ;
(PID.TID 0000.0001) PTRACERS_long_names = /* Tracer long name */
(PID.TID 0000.0001)               ''
(PID.TID 0000.0001)     ;
(PID.TID 0000.0001) PTRACERS_ioLabel = /* tracer IO Label */
(PID.TID 0000.0001)               '29'
(PID.TID 0000.0001)     ;
(PID.TID 0000.0001) PTRACERS_advScheme = /* Advection Scheme */
(PID.TID 0000.0001)                      33
(PID.TID 0000.0001)     ;
(PID.TID 0000.0001) PTRACERS_SOM_Advection = /* tracer uses SOM advection scheme */
(PID.TID 0000.0001)                   F
(PID.TID 0000.0001)     ;
(PID.TID 0000.0001) PTRACERS_ImplVertAdv = /* implicit vert. advection flag */
(PID.TID 0000.0001)                   F
(PID.TID 0000.0001)     ;
(PID.TID 0000.0001) PTRACERS_diffKh = /* Laplacian Diffusivity */
(PID.TID 0000.0001)                 0.000000000000000E+00
(PID.TID 0000.0001)     ;
(PID.TID 0000.0001) PTRACERS_diffK4 = /* Biharmonic Diffusivity */
(PID.TID 0000.0001)                 0.000000000000000E+00
(PID.TID 0000.0001)     ;
(PID.TID 0000.0001) PTRACERS_diffKrNr = /* Vertical Diffusivity */
(PID.TID 0000.0001)    15 @  1.000000000000000E-05              /* K =  1: 15 */
(PID.TID 0000.0001)     ;
(PID.TID 0000.0001) PTRACERS_useGMRedi = /* apply GM-Redi */
(PID.TID 0000.0001)                   T
(PID.TID 0000.0001)     ;
(PID.TID 0000.0001) PTRACERS_useDWNSLP = /* apply DOWN-SLOPE Flow */
(PID.TID 0000.0001)                   F
(PID.TID 0000.0001)     ;
(PID.TID 0000.0001) PTRACERS_useKPP = /* apply KPP scheme */
(PID.TID 0000.0001)                   F
(PID.TID 0000.0001)     ;
(PID.TID 0000.0001) PTRACERS_ref = /* Reference vertical profile */
(PID.TID 0000.0001)    15 @  0.000000000000000E+00              /* K =  1: 15 */
(PID.TID 0000.0001)     ;
(PID.TID 0000.0001) PTRACERS_EvPrRn =/* tracer conc. in Evap. & Rain */
(PID.TID 0000.0001)                 1.234567000000000E+05
(PID.TID 0000.0001)     ;
(PID.TID 0000.0001)  -----------------------------------
(PID.TID 0000.0001)  tracer number :   30
(PID.TID 0000.0001) PTRACERS_names = /* Tracer short name */
(PID.TID 0000.0001)               'c13'
(PID.TID 0000.0001)     ;
(PID.TID 0000.0001) PTRACERS_long_names = /* Tracer long name */
(PID.TID 0000.0001)               ''
(PID.TID 0000.0001)     ;
(PID.TID 0000.0001) PTRACERS_ioLabel = /* tracer IO Label */
(PID.TID 0000.0001)               '30'
(PID.TID 0000.0001)     ;
(PID.TID 0000.0001) PTRACERS_advScheme = /* Advection Scheme */
(PID.TID 0000.0001)                      33
(PID.TID 0000.0001)     ;
(PID.TID 0000.0001) PTRACERS_SOM_Advection = /* tracer uses SOM advection scheme */
(PID.TID 0000.0001)                   F
(PID.TID 0000.0001)     ;
(PID.TID 0000.0001) PTRACERS_ImplVertAdv = /* implicit vert. advection flag */
(PID.TID 0000.0001)                   F
(PID.TID 0000.0001)     ;
(PID.TID 0000.0001) PTRACERS_diffKh = /* Laplacian Diffusivity */
(PID.TID 0000.0001)                 0.000000000000000E+00
(PID.TID 0000.0001)     ;
(PID.TID 0000.0001) PTRACERS_diffK4 = /* Biharmonic Diffusivity */
(PID.TID 0000.0001)                 0.000000000000000E+00
(PID.TID 0000.0001)     ;
(PID.TID 0000.0001) PTRACERS_diffKrNr = /* Vertical Diffusivity */
(PID.TID 0000.0001)    15 @  1.000000000000000E-05              /* K =  1: 15 */
(PID.TID 0000.0001)     ;
(PID.TID 0000.0001) PTRACERS_useGMRedi = /* apply GM-Redi */
(PID.TID 0000.0001)                   T
(PID.TID 0000.0001)     ;
(PID.TID 0000.0001) PTRACERS_useDWNSLP = /* apply DOWN-SLOPE Flow */
(PID.TID 0000.0001)                   F
(PID.TID 0000.0001)     ;
(PID.TID 0000.0001) PTRACERS_useKPP = /* apply KPP scheme */
(PID.TID 0000.0001)                   F
(PID.TID 0000.0001)     ;
(PID.TID 0000.0001) PTRACERS_ref = /* Reference vertical profile */
(PID.TID 0000.0001)    15 @  0.000000000000000E+00              /* K =  1: 15 */
(PID.TID 0000.0001)     ;
(PID.TID 0000.0001) PTRACERS_EvPrRn =/* tracer conc. in Evap. & Rain */
(PID.TID 0000.0001)                 1.234567000000000E+05
(PID.TID 0000.0001)     ;
(PID.TID 0000.0001)  -----------------------------------
(PID.TID 0000.0001)  tracer number :   31
(PID.TID 0000.0001) PTRACERS_names = /* Tracer short name */
(PID.TID 0000.0001)               'c14'
(PID.TID 0000.0001)     ;
(PID.TID 0000.0001) PTRACERS_long_names = /* Tracer long name */
(PID.TID 0000.0001)               ''
(PID.TID 0000.0001)     ;
(PID.TID 0000.0001) PTRACERS_ioLabel = /* tracer IO Label */
(PID.TID 0000.0001)               '31'
(PID.TID 0000.0001)     ;
(PID.TID 0000.0001) PTRACERS_advScheme = /* Advection Scheme */
(PID.TID 0000.0001)                      33
(PID.TID 0000.0001)     ;
(PID.TID 0000.0001) PTRACERS_SOM_Advection = /* tracer uses SOM advection scheme */
(PID.TID 0000.0001)                   F
(PID.TID 0000.0001)     ;
(PID.TID 0000.0001) PTRACERS_ImplVertAdv = /* implicit vert. advection flag */
(PID.TID 0000.0001)                   F
(PID.TID 0000.0001)     ;
(PID.TID 0000.0001) PTRACERS_diffKh = /* Laplacian Diffusivity */
(PID.TID 0000.0001)                 0.000000000000000E+00
(PID.TID 0000.0001)     ;
(PID.TID 0000.0001) PTRACERS_diffK4 = /* Biharmonic Diffusivity */
(PID.TID 0000.0001)                 0.000000000000000E+00
(PID.TID 0000.0001)     ;
(PID.TID 0000.0001) PTRACERS_diffKrNr = /* Vertical Diffusivity */
(PID.TID 0000.0001)    15 @  1.000000000000000E-05              /* K =  1: 15 */
(PID.TID 0000.0001)     ;
(PID.TID 0000.0001) PTRACERS_useGMRedi = /* apply GM-Redi */
(PID.TID 0000.0001)                   T
(PID.TID 0000.0001)     ;
(PID.TID 0000.0001) PTRACERS_useDWNSLP = /* apply DOWN-SLOPE Flow */
(PID.TID 0000.0001)                   F
(PID.TID 0000.0001)     ;
(PID.TID 0000.0001) PTRACERS_useKPP = /* apply KPP scheme */
(PID.TID 0000.0001)                   F
(PID.TID 0000.0001)     ;
(PID.TID 0000.0001) PTRACERS_ref = /* Reference vertical profile */
(PID.TID 0000.0001)    15 @  0.000000000000000E+00              /* K =  1: 15 */
(PID.TID 0000.0001)     ;
(PID.TID 0000.0001) PTRACERS_EvPrRn =/* tracer conc. in Evap. & Rain */
(PID.TID 0000.0001)                 1.234567000000000E+05
(PID.TID 0000.0001)     ;
(PID.TID 0000.0001)  -----------------------------------
(PID.TID 0000.0001)  tracer number :   32
(PID.TID 0000.0001) PTRACERS_names = /* Tracer short name */
(PID.TID 0000.0001)               'c15'
(PID.TID 0000.0001)     ;
(PID.TID 0000.0001) PTRACERS_long_names = /* Tracer long name */
(PID.TID 0000.0001)               ''
(PID.TID 0000.0001)     ;
(PID.TID 0000.0001) PTRACERS_ioLabel = /* tracer IO Label */
(PID.TID 0000.0001)               '32'
(PID.TID 0000.0001)     ;
(PID.TID 0000.0001) PTRACERS_advScheme = /* Advection Scheme */
(PID.TID 0000.0001)                      33
(PID.TID 0000.0001)     ;
(PID.TID 0000.0001) PTRACERS_SOM_Advection = /* tracer uses SOM advection scheme */
(PID.TID 0000.0001)                   F
(PID.TID 0000.0001)     ;
(PID.TID 0000.0001) PTRACERS_ImplVertAdv = /* implicit vert. advection flag */
(PID.TID 0000.0001)                   F
(PID.TID 0000.0001)     ;
(PID.TID 0000.0001) PTRACERS_diffKh = /* Laplacian Diffusivity */
(PID.TID 0000.0001)                 0.000000000000000E+00
(PID.TID 0000.0001)     ;
(PID.TID 0000.0001) PTRACERS_diffK4 = /* Biharmonic Diffusivity */
(PID.TID 0000.0001)                 0.000000000000000E+00
(PID.TID 0000.0001)     ;
(PID.TID 0000.0001) PTRACERS_diffKrNr = /* Vertical Diffusivity */
(PID.TID 0000.0001)    15 @  1.000000000000000E-05              /* K =  1: 15 */
(PID.TID 0000.0001)     ;
(PID.TID 0000.0001) PTRACERS_useGMRedi = /* apply GM-Redi */
(PID.TID 0000.0001)                   T
(PID.TID 0000.0001)     ;
(PID.TID 0000.0001) PTRACERS_useDWNSLP = /* apply DOWN-SLOPE Flow */
(PID.TID 0000.0001)                   F
(PID.TID 0000.0001)     ;
(PID.TID 0000.0001) PTRACERS_useKPP = /* apply KPP scheme */
(PID.TID 0000.0001)                   F
(PID.TID 0000.0001)     ;
(PID.TID 0000.0001) PTRACERS_ref = /* Reference vertical profile */
(PID.TID 0000.0001)    15 @  0.000000000000000E+00              /* K =  1: 15 */
(PID.TID 0000.0001)     ;
(PID.TID 0000.0001) PTRACERS_EvPrRn =/* tracer conc. in Evap. & Rain */
(PID.TID 0000.0001)                 1.234567000000000E+05
(PID.TID 0000.0001)     ;
(PID.TID 0000.0001)  -----------------------------------
(PID.TID 0000.0001)  tracer number :   33
(PID.TID 0000.0001) PTRACERS_names = /* Tracer short name */
(PID.TID 0000.0001)               'c16'
(PID.TID 0000.0001)     ;
(PID.TID 0000.0001) PTRACERS_long_names = /* Tracer long name */
(PID.TID 0000.0001)               ''
(PID.TID 0000.0001)     ;
(PID.TID 0000.0001) PTRACERS_ioLabel = /* tracer IO Label */
(PID.TID 0000.0001)               '33'
(PID.TID 0000.0001)     ;
(PID.TID 0000.0001) PTRACERS_advScheme = /* Advection Scheme */
(PID.TID 0000.0001)                      33
(PID.TID 0000.0001)     ;
(PID.TID 0000.0001) PTRACERS_SOM_Advection = /* tracer uses SOM advection scheme */
(PID.TID 0000.0001)                   F
(PID.TID 0000.0001)     ;
(PID.TID 0000.0001) PTRACERS_ImplVertAdv = /* implicit vert. advection flag */
(PID.TID 0000.0001)                   F
(PID.TID 0000.0001)     ;
(PID.TID 0000.0001) PTRACERS_diffKh = /* Laplacian Diffusivity */
(PID.TID 0000.0001)                 0.000000000000000E+00
(PID.TID 0000.0001)     ;
(PID.TID 0000.0001) PTRACERS_diffK4 = /* Biharmonic Diffusivity */
(PID.TID 0000.0001)                 0.000000000000000E+00
(PID.TID 0000.0001)     ;
(PID.TID 0000.0001) PTRACERS_diffKrNr = /* Vertical Diffusivity */
(PID.TID 0000.0001)    15 @  1.000000000000000E-05              /* K =  1: 15 */
(PID.TID 0000.0001)     ;
(PID.TID 0000.0001) PTRACERS_useGMRedi = /* apply GM-Redi */
(PID.TID 0000.0001)                   T
(PID.TID 0000.0001)     ;
(PID.TID 0000.0001) PTRACERS_useDWNSLP = /* apply DOWN-SLOPE Flow */
(PID.TID 0000.0001)                   F
(PID.TID 0000.0001)     ;
(PID.TID 0000.0001) PTRACERS_useKPP = /* apply KPP scheme */
(PID.TID 0000.0001)                   F
(PID.TID 0000.0001)     ;
(PID.TID 0000.0001) PTRACERS_ref = /* Reference vertical profile */
(PID.TID 0000.0001)    15 @  0.000000000000000E+00              /* K =  1: 15 */
(PID.TID 0000.0001)     ;
(PID.TID 0000.0001) PTRACERS_EvPrRn =/* tracer conc. in Evap. & Rain */
(PID.TID 0000.0001)                 1.234567000000000E+05
(PID.TID 0000.0001)     ;
(PID.TID 0000.0001)  -----------------------------------
(PID.TID 0000.0001)  tracer number :   34
(PID.TID 0000.0001) PTRACERS_names = /* Tracer short name */
(PID.TID 0000.0001)               'c17'
(PID.TID 0000.0001)     ;
(PID.TID 0000.0001) PTRACERS_long_names = /* Tracer long name */
(PID.TID 0000.0001)               ''
(PID.TID 0000.0001)     ;
(PID.TID 0000.0001) PTRACERS_ioLabel = /* tracer IO Label */
(PID.TID 0000.0001)               '34'
(PID.TID 0000.0001)     ;
(PID.TID 0000.0001) PTRACERS_advScheme = /* Advection Scheme */
(PID.TID 0000.0001)                      33
(PID.TID 0000.0001)     ;
(PID.TID 0000.0001) PTRACERS_SOM_Advection = /* tracer uses SOM advection scheme */
(PID.TID 0000.0001)                   F
(PID.TID 0000.0001)     ;
(PID.TID 0000.0001) PTRACERS_ImplVertAdv = /* implicit vert. advection flag */
(PID.TID 0000.0001)                   F
(PID.TID 0000.0001)     ;
(PID.TID 0000.0001) PTRACERS_diffKh = /* Laplacian Diffusivity */
(PID.TID 0000.0001)                 0.000000000000000E+00
(PID.TID 0000.0001)     ;
(PID.TID 0000.0001) PTRACERS_diffK4 = /* Biharmonic Diffusivity */
(PID.TID 0000.0001)                 0.000000000000000E+00
(PID.TID 0000.0001)     ;
(PID.TID 0000.0001) PTRACERS_diffKrNr = /* Vertical Diffusivity */
(PID.TID 0000.0001)    15 @  1.000000000000000E-05              /* K =  1: 15 */
(PID.TID 0000.0001)     ;
(PID.TID 0000.0001) PTRACERS_useGMRedi = /* apply GM-Redi */
(PID.TID 0000.0001)                   T
(PID.TID 0000.0001)     ;
(PID.TID 0000.0001) PTRACERS_useDWNSLP = /* apply DOWN-SLOPE Flow */
(PID.TID 0000.0001)                   F
(PID.TID 0000.0001)     ;
(PID.TID 0000.0001) PTRACERS_useKPP = /* apply KPP scheme */
(PID.TID 0000.0001)                   F
(PID.TID 0000.0001)     ;
(PID.TID 0000.0001) PTRACERS_ref = /* Reference vertical profile */
(PID.TID 0000.0001)    15 @  0.000000000000000E+00              /* K =  1: 15 */
(PID.TID 0000.0001)     ;
(PID.TID 0000.0001) PTRACERS_EvPrRn =/* tracer conc. in Evap. & Rain */
(PID.TID 0000.0001)                 1.234567000000000E+05
(PID.TID 0000.0001)     ;
(PID.TID 0000.0001)  -----------------------------------
(PID.TID 0000.0001)  tracer number :   35
(PID.TID 0000.0001) PTRACERS_names = /* Tracer short name */
(PID.TID 0000.0001)               'c18'
(PID.TID 0000.0001)     ;
(PID.TID 0000.0001) PTRACERS_long_names = /* Tracer long name */
(PID.TID 0000.0001)               ''
(PID.TID 0000.0001)     ;
(PID.TID 0000.0001) PTRACERS_ioLabel = /* tracer IO Label */
(PID.TID 0000.0001)               '35'
(PID.TID 0000.0001)     ;
(PID.TID 0000.0001) PTRACERS_advScheme = /* Advection Scheme */
(PID.TID 0000.0001)                      33
(PID.TID 0000.0001)     ;
(PID.TID 0000.0001) PTRACERS_SOM_Advection = /* tracer uses SOM advection scheme */
(PID.TID 0000.0001)                   F
(PID.TID 0000.0001)     ;
(PID.TID 0000.0001) PTRACERS_ImplVertAdv = /* implicit vert. advection flag */
(PID.TID 0000.0001)                   F
(PID.TID 0000.0001)     ;
(PID.TID 0000.0001) PTRACERS_diffKh = /* Laplacian Diffusivity */
(PID.TID 0000.0001)                 0.000000000000000E+00
(PID.TID 0000.0001)     ;
(PID.TID 0000.0001) PTRACERS_diffK4 = /* Biharmonic Diffusivity */
(PID.TID 0000.0001)                 0.000000000000000E+00
(PID.TID 0000.0001)     ;
(PID.TID 0000.0001) PTRACERS_diffKrNr = /* Vertical Diffusivity */
(PID.TID 0000.0001)    15 @  1.000000000000000E-05              /* K =  1: 15 */
(PID.TID 0000.0001)     ;
(PID.TID 0000.0001) PTRACERS_useGMRedi = /* apply GM-Redi */
(PID.TID 0000.0001)                   T
(PID.TID 0000.0001)     ;
(PID.TID 0000.0001) PTRACERS_useDWNSLP = /* apply DOWN-SLOPE Flow */
(PID.TID 0000.0001)                   F
(PID.TID 0000.0001)     ;
(PID.TID 0000.0001) PTRACERS_useKPP = /* apply KPP scheme */
(PID.TID 0000.0001)                   F
(PID.TID 0000.0001)     ;
(PID.TID 0000.0001) PTRACERS_ref = /* Reference vertical profile */
(PID.TID 0000.0001)    15 @  0.000000000000000E+00              /* K =  1: 15 */
(PID.TID 0000.0001)     ;
(PID.TID 0000.0001) PTRACERS_EvPrRn =/* tracer conc. in Evap. & Rain */
(PID.TID 0000.0001)                 1.234567000000000E+05
(PID.TID 0000.0001)     ;
(PID.TID 0000.0001)  -----------------------------------
(PID.TID 0000.0001)  tracer number :   36
(PID.TID 0000.0001) PTRACERS_names = /* Tracer short name */
(PID.TID 0000.0001)               'c19'
(PID.TID 0000.0001)     ;
(PID.TID 0000.0001) PTRACERS_long_names = /* Tracer long name */
(PID.TID 0000.0001)               ''
(PID.TID 0000.0001)     ;
(PID.TID 0000.0001) PTRACERS_ioLabel = /* tracer IO Label */
(PID.TID 0000.0001)               '36'
(PID.TID 0000.0001)     ;
(PID.TID 0000.0001) PTRACERS_advScheme = /* Advection Scheme */
(PID.TID 0000.0001)                      33
(PID.TID 0000.0001)     ;
(PID.TID 0000.0001) PTRACERS_SOM_Advection = /* tracer uses SOM advection scheme */
(PID.TID 0000.0001)                   F
(PID.TID 0000.0001)     ;
(PID.TID 0000.0001) PTRACERS_ImplVertAdv = /* implicit vert. advection flag */
(PID.TID 0000.0001)                   F
(PID.TID 0000.0001)     ;
(PID.TID 0000.0001) PTRACERS_diffKh = /* Laplacian Diffusivity */
(PID.TID 0000.0001)                 0.000000000000000E+00
(PID.TID 0000.0001)     ;
(PID.TID 0000.0001) PTRACERS_diffK4 = /* Biharmonic Diffusivity */
(PID.TID 0000.0001)                 0.000000000000000E+00
(PID.TID 0000.0001)     ;
(PID.TID 0000.0001) PTRACERS_diffKrNr = /* Vertical Diffusivity */
(PID.TID 0000.0001)    15 @  1.000000000000000E-05              /* K =  1: 15 */
(PID.TID 0000.0001)     ;
(PID.TID 0000.0001) PTRACERS_useGMRedi = /* apply GM-Redi */
(PID.TID 0000.0001)                   T
(PID.TID 0000.0001)     ;
(PID.TID 0000.0001) PTRACERS_useDWNSLP = /* apply DOWN-SLOPE Flow */
(PID.TID 0000.0001)                   F
(PID.TID 0000.0001)     ;
(PID.TID 0000.0001) PTRACERS_useKPP = /* apply KPP scheme */
(PID.TID 0000.0001)                   F
(PID.TID 0000.0001)     ;
(PID.TID 0000.0001) PTRACERS_ref = /* Reference vertical profile */
(PID.TID 0000.0001)    15 @  0.000000000000000E+00              /* K =  1: 15 */
(PID.TID 0000.0001)     ;
(PID.TID 0000.0001) PTRACERS_EvPrRn =/* tracer conc. in Evap. & Rain */
(PID.TID 0000.0001)                 1.234567000000000E+05
(PID.TID 0000.0001)     ;
(PID.TID 0000.0001)  -----------------------------------
(PID.TID 0000.0001)  tracer number :   37
(PID.TID 0000.0001) PTRACERS_names = /* Tracer short name */
(PID.TID 0000.0001)               'c20'
(PID.TID 0000.0001)     ;
(PID.TID 0000.0001) PTRACERS_long_names = /* Tracer long name */
(PID.TID 0000.0001)               ''
(PID.TID 0000.0001)     ;
(PID.TID 0000.0001) PTRACERS_ioLabel = /* tracer IO Label */
(PID.TID 0000.0001)               '37'
(PID.TID 0000.0001)     ;
(PID.TID 0000.0001) PTRACERS_advScheme = /* Advection Scheme */
(PID.TID 0000.0001)                      33
(PID.TID 0000.0001)     ;
(PID.TID 0000.0001) PTRACERS_SOM_Advection = /* tracer uses SOM advection scheme */
(PID.TID 0000.0001)                   F
(PID.TID 0000.0001)     ;
(PID.TID 0000.0001) PTRACERS_ImplVertAdv = /* implicit vert. advection flag */
(PID.TID 0000.0001)                   F
(PID.TID 0000.0001)     ;
(PID.TID 0000.0001) PTRACERS_diffKh = /* Laplacian Diffusivity */
(PID.TID 0000.0001)                 0.000000000000000E+00
(PID.TID 0000.0001)     ;
(PID.TID 0000.0001) PTRACERS_diffK4 = /* Biharmonic Diffusivity */
(PID.TID 0000.0001)                 0.000000000000000E+00
(PID.TID 0000.0001)     ;
(PID.TID 0000.0001) PTRACERS_diffKrNr = /* Vertical Diffusivity */
(PID.TID 0000.0001)    15 @  1.000000000000000E-05              /* K =  1: 15 */
(PID.TID 0000.0001)     ;
(PID.TID 0000.0001) PTRACERS_useGMRedi = /* apply GM-Redi */
(PID.TID 0000.0001)                   T
(PID.TID 0000.0001)     ;
(PID.TID 0000.0001) PTRACERS_useDWNSLP = /* apply DOWN-SLOPE Flow */
(PID.TID 0000.0001)                   F
(PID.TID 0000.0001)     ;
(PID.TID 0000.0001) PTRACERS_useKPP = /* apply KPP scheme */
(PID.TID 0000.0001)                   F
(PID.TID 0000.0001)     ;
(PID.TID 0000.0001) PTRACERS_ref = /* Reference vertical profile */
(PID.TID 0000.0001)    15 @  0.000000000000000E+00              /* K =  1: 15 */
(PID.TID 0000.0001)     ;
(PID.TID 0000.0001) PTRACERS_EvPrRn =/* tracer conc. in Evap. & Rain */
(PID.TID 0000.0001)                 1.234567000000000E+05
(PID.TID 0000.0001)     ;
(PID.TID 0000.0001)  -----------------------------------
(PID.TID 0000.0001)  tracer number :   38
(PID.TID 0000.0001) PTRACERS_names = /* Tracer short name */
(PID.TID 0000.0001)               'c21'
(PID.TID 0000.0001)     ;
(PID.TID 0000.0001) PTRACERS_long_names = /* Tracer long name */
(PID.TID 0000.0001)               ''
(PID.TID 0000.0001)     ;
(PID.TID 0000.0001) PTRACERS_ioLabel = /* tracer IO Label */
(PID.TID 0000.0001)               '38'
(PID.TID 0000.0001)     ;
(PID.TID 0000.0001) PTRACERS_advScheme = /* Advection Scheme */
(PID.TID 0000.0001)                      33
(PID.TID 0000.0001)     ;
(PID.TID 0000.0001) PTRACERS_SOM_Advection = /* tracer uses SOM advection scheme */
(PID.TID 0000.0001)                   F
(PID.TID 0000.0001)     ;
(PID.TID 0000.0001) PTRACERS_ImplVertAdv = /* implicit vert. advection flag */
(PID.TID 0000.0001)                   F
(PID.TID 0000.0001)     ;
(PID.TID 0000.0001) PTRACERS_diffKh = /* Laplacian Diffusivity */
(PID.TID 0000.0001)                 0.000000000000000E+00
(PID.TID 0000.0001)     ;
(PID.TID 0000.0001) PTRACERS_diffK4 = /* Biharmonic Diffusivity */
(PID.TID 0000.0001)                 0.000000000000000E+00
(PID.TID 0000.0001)     ;
(PID.TID 0000.0001) PTRACERS_diffKrNr = /* Vertical Diffusivity */
(PID.TID 0000.0001)    15 @  1.000000000000000E-05              /* K =  1: 15 */
(PID.TID 0000.0001)     ;
(PID.TID 0000.0001) PTRACERS_useGMRedi = /* apply GM-Redi */
(PID.TID 0000.0001)                   T
(PID.TID 0000.0001)     ;
(PID.TID 0000.0001) PTRACERS_useDWNSLP = /* apply DOWN-SLOPE Flow */
(PID.TID 0000.0001)                   F
(PID.TID 0000.0001)     ;
(PID.TID 0000.0001) PTRACERS_useKPP = /* apply KPP scheme */
(PID.TID 0000.0001)                   F
(PID.TID 0000.0001)     ;
(PID.TID 0000.0001) PTRACERS_ref = /* Reference vertical profile */
(PID.TID 0000.0001)    15 @  0.000000000000000E+00              /* K =  1: 15 */
(PID.TID 0000.0001)     ;
(PID.TID 0000.0001) PTRACERS_EvPrRn =/* tracer conc. in Evap. & Rain */
(PID.TID 0000.0001)                 1.234567000000000E+05
(PID.TID 0000.0001)     ;
(PID.TID 0000.0001)  -----------------------------------
(PID.TID 0000.0001)  tracer number :   39
(PID.TID 0000.0001) PTRACERS_names = /* Tracer short name */
(PID.TID 0000.0001)               'c22'
(PID.TID 0000.0001)     ;
(PID.TID 0000.0001) PTRACERS_long_names = /* Tracer long name */
(PID.TID 0000.0001)               ''
(PID.TID 0000.0001)     ;
(PID.TID 0000.0001) PTRACERS_ioLabel = /* tracer IO Label */
(PID.TID 0000.0001)               '39'
(PID.TID 0000.0001)     ;
(PID.TID 0000.0001) PTRACERS_advScheme = /* Advection Scheme */
(PID.TID 0000.0001)                      33
(PID.TID 0000.0001)     ;
(PID.TID 0000.0001) PTRACERS_SOM_Advection = /* tracer uses SOM advection scheme */
(PID.TID 0000.0001)                   F
(PID.TID 0000.0001)     ;
(PID.TID 0000.0001) PTRACERS_ImplVertAdv = /* implicit vert. advection flag */
(PID.TID 0000.0001)                   F
(PID.TID 0000.0001)     ;
(PID.TID 0000.0001) PTRACERS_diffKh = /* Laplacian Diffusivity */
(PID.TID 0000.0001)                 0.000000000000000E+00
(PID.TID 0000.0001)     ;
(PID.TID 0000.0001) PTRACERS_diffK4 = /* Biharmonic Diffusivity */
(PID.TID 0000.0001)                 0.000000000000000E+00
(PID.TID 0000.0001)     ;
(PID.TID 0000.0001) PTRACERS_diffKrNr = /* Vertical Diffusivity */
(PID.TID 0000.0001)    15 @  1.000000000000000E-05              /* K =  1: 15 */
(PID.TID 0000.0001)     ;
(PID.TID 0000.0001) PTRACERS_useGMRedi = /* apply GM-Redi */
(PID.TID 0000.0001)                   T
(PID.TID 0000.0001)     ;
(PID.TID 0000.0001) PTRACERS_useDWNSLP = /* apply DOWN-SLOPE Flow */
(PID.TID 0000.0001)                   F
(PID.TID 0000.0001)     ;
(PID.TID 0000.0001) PTRACERS_useKPP = /* apply KPP scheme */
(PID.TID 0000.0001)                   F
(PID.TID 0000.0001)     ;
(PID.TID 0000.0001) PTRACERS_ref = /* Reference vertical profile */
(PID.TID 0000.0001)    15 @  0.000000000000000E+00              /* K =  1: 15 */
(PID.TID 0000.0001)     ;
(PID.TID 0000.0001) PTRACERS_EvPrRn =/* tracer conc. in Evap. & Rain */
(PID.TID 0000.0001)                 1.234567000000000E+05
(PID.TID 0000.0001)     ;
(PID.TID 0000.0001)  -----------------------------------
(PID.TID 0000.0001)  tracer number :   40
(PID.TID 0000.0001) PTRACERS_names = /* Tracer short name */
(PID.TID 0000.0001)               'c23'
(PID.TID 0000.0001)     ;
(PID.TID 0000.0001) PTRACERS_long_names = /* Tracer long name */
(PID.TID 0000.0001)               ''
(PID.TID 0000.0001)     ;
(PID.TID 0000.0001) PTRACERS_ioLabel = /* tracer IO Label */
(PID.TID 0000.0001)               '40'
(PID.TID 0000.0001)     ;
(PID.TID 0000.0001) PTRACERS_advScheme = /* Advection Scheme */
(PID.TID 0000.0001)                      33
(PID.TID 0000.0001)     ;
(PID.TID 0000.0001) PTRACERS_SOM_Advection = /* tracer uses SOM advection scheme */
(PID.TID 0000.0001)                   F
(PID.TID 0000.0001)     ;
(PID.TID 0000.0001) PTRACERS_ImplVertAdv = /* implicit vert. advection flag */
(PID.TID 0000.0001)                   F
(PID.TID 0000.0001)     ;
(PID.TID 0000.0001) PTRACERS_diffKh = /* Laplacian Diffusivity */
(PID.TID 0000.0001)                 0.000000000000000E+00
(PID.TID 0000.0001)     ;
(PID.TID 0000.0001) PTRACERS_diffK4 = /* Biharmonic Diffusivity */
(PID.TID 0000.0001)                 0.000000000000000E+00
(PID.TID 0000.0001)     ;
(PID.TID 0000.0001) PTRACERS_diffKrNr = /* Vertical Diffusivity */
(PID.TID 0000.0001)    15 @  1.000000000000000E-05              /* K =  1: 15 */
(PID.TID 0000.0001)     ;
(PID.TID 0000.0001) PTRACERS_useGMRedi = /* apply GM-Redi */
(PID.TID 0000.0001)                   T
(PID.TID 0000.0001)     ;
(PID.TID 0000.0001) PTRACERS_useDWNSLP = /* apply DOWN-SLOPE Flow */
(PID.TID 0000.0001)                   F
(PID.TID 0000.0001)     ;
(PID.TID 0000.0001) PTRACERS_useKPP = /* apply KPP scheme */
(PID.TID 0000.0001)                   F
(PID.TID 0000.0001)     ;
(PID.TID 0000.0001) PTRACERS_ref = /* Reference vertical profile */
(PID.TID 0000.0001)    15 @  0.000000000000000E+00              /* K =  1: 15 */
(PID.TID 0000.0001)     ;
(PID.TID 0000.0001) PTRACERS_EvPrRn =/* tracer conc. in Evap. & Rain */
(PID.TID 0000.0001)                 1.234567000000000E+05
(PID.TID 0000.0001)     ;
(PID.TID 0000.0001)  -----------------------------------
(PID.TID 0000.0001)  tracer number :   41
(PID.TID 0000.0001) PTRACERS_names = /* Tracer short name */
(PID.TID 0000.0001)               'c24'
(PID.TID 0000.0001)     ;
(PID.TID 0000.0001) PTRACERS_long_names = /* Tracer long name */
(PID.TID 0000.0001)               ''
(PID.TID 0000.0001)     ;
(PID.TID 0000.0001) PTRACERS_ioLabel = /* tracer IO Label */
(PID.TID 0000.0001)               '41'
(PID.TID 0000.0001)     ;
(PID.TID 0000.0001) PTRACERS_advScheme = /* Advection Scheme */
(PID.TID 0000.0001)                      33
(PID.TID 0000.0001)     ;
(PID.TID 0000.0001) PTRACERS_SOM_Advection = /* tracer uses SOM advection scheme */
(PID.TID 0000.0001)                   F
(PID.TID 0000.0001)     ;
(PID.TID 0000.0001) PTRACERS_ImplVertAdv = /* implicit vert. advection flag */
(PID.TID 0000.0001)                   F
(PID.TID 0000.0001)     ;
(PID.TID 0000.0001) PTRACERS_diffKh = /* Laplacian Diffusivity */
(PID.TID 0000.0001)                 0.000000000000000E+00
(PID.TID 0000.0001)     ;
(PID.TID 0000.0001) PTRACERS_diffK4 = /* Biharmonic Diffusivity */
(PID.TID 0000.0001)                 0.000000000000000E+00
(PID.TID 0000.0001)     ;
(PID.TID 0000.0001) PTRACERS_diffKrNr = /* Vertical Diffusivity */
(PID.TID 0000.0001)    15 @  1.000000000000000E-05              /* K =  1: 15 */
(PID.TID 0000.0001)     ;
(PID.TID 0000.0001) PTRACERS_useGMRedi = /* apply GM-Redi */
(PID.TID 0000.0001)                   T
(PID.TID 0000.0001)     ;
(PID.TID 0000.0001) PTRACERS_useDWNSLP = /* apply DOWN-SLOPE Flow */
(PID.TID 0000.0001)                   F
(PID.TID 0000.0001)     ;
(PID.TID 0000.0001) PTRACERS_useKPP = /* apply KPP scheme */
(PID.TID 0000.0001)                   F
(PID.TID 0000.0001)     ;
(PID.TID 0000.0001) PTRACERS_ref = /* Reference vertical profile */
(PID.TID 0000.0001)    15 @  0.000000000000000E+00              /* K =  1: 15 */
(PID.TID 0000.0001)     ;
(PID.TID 0000.0001) PTRACERS_EvPrRn =/* tracer conc. in Evap. & Rain */
(PID.TID 0000.0001)                 1.234567000000000E+05
(PID.TID 0000.0001)     ;
(PID.TID 0000.0001)  -----------------------------------
(PID.TID 0000.0001)  tracer number :   42
(PID.TID 0000.0001) PTRACERS_names = /* Tracer short name */
(PID.TID 0000.0001)               'c25'
(PID.TID 0000.0001)     ;
(PID.TID 0000.0001) PTRACERS_long_names = /* Tracer long name */
(PID.TID 0000.0001)               ''
(PID.TID 0000.0001)     ;
(PID.TID 0000.0001) PTRACERS_ioLabel = /* tracer IO Label */
(PID.TID 0000.0001)               '42'
(PID.TID 0000.0001)     ;
(PID.TID 0000.0001) PTRACERS_advScheme = /* Advection Scheme */
(PID.TID 0000.0001)                      33
(PID.TID 0000.0001)     ;
(PID.TID 0000.0001) PTRACERS_SOM_Advection = /* tracer uses SOM advection scheme */
(PID.TID 0000.0001)                   F
(PID.TID 0000.0001)     ;
(PID.TID 0000.0001) PTRACERS_ImplVertAdv = /* implicit vert. advection flag */
(PID.TID 0000.0001)                   F
(PID.TID 0000.0001)     ;
(PID.TID 0000.0001) PTRACERS_diffKh = /* Laplacian Diffusivity */
(PID.TID 0000.0001)                 0.000000000000000E+00
(PID.TID 0000.0001)     ;
(PID.TID 0000.0001) PTRACERS_diffK4 = /* Biharmonic Diffusivity */
(PID.TID 0000.0001)                 0.000000000000000E+00
(PID.TID 0000.0001)     ;
(PID.TID 0000.0001) PTRACERS_diffKrNr = /* Vertical Diffusivity */
(PID.TID 0000.0001)    15 @  1.000000000000000E-05              /* K =  1: 15 */
(PID.TID 0000.0001)     ;
(PID.TID 0000.0001) PTRACERS_useGMRedi = /* apply GM-Redi */
(PID.TID 0000.0001)                   T
(PID.TID 0000.0001)     ;
(PID.TID 0000.0001) PTRACERS_useDWNSLP = /* apply DOWN-SLOPE Flow */
(PID.TID 0000.0001)                   F
(PID.TID 0000.0001)     ;
(PID.TID 0000.0001) PTRACERS_useKPP = /* apply KPP scheme */
(PID.TID 0000.0001)                   F
(PID.TID 0000.0001)     ;
(PID.TID 0000.0001) PTRACERS_ref = /* Reference vertical profile */
(PID.TID 0000.0001)    15 @  0.000000000000000E+00              /* K =  1: 15 */
(PID.TID 0000.0001)     ;
(PID.TID 0000.0001) PTRACERS_EvPrRn =/* tracer conc. in Evap. & Rain */
(PID.TID 0000.0001)                 1.234567000000000E+05
(PID.TID 0000.0001)     ;
(PID.TID 0000.0001)  -----------------------------------
(PID.TID 0000.0001)  tracer number :   43
(PID.TID 0000.0001) PTRACERS_names = /* Tracer short name */
(PID.TID 0000.0001)               'c26'
(PID.TID 0000.0001)     ;
(PID.TID 0000.0001) PTRACERS_long_names = /* Tracer long name */
(PID.TID 0000.0001)               ''
(PID.TID 0000.0001)     ;
(PID.TID 0000.0001) PTRACERS_ioLabel = /* tracer IO Label */
(PID.TID 0000.0001)               '43'
(PID.TID 0000.0001)     ;
(PID.TID 0000.0001) PTRACERS_advScheme = /* Advection Scheme */
(PID.TID 0000.0001)                      33
(PID.TID 0000.0001)     ;
(PID.TID 0000.0001) PTRACERS_SOM_Advection = /* tracer uses SOM advection scheme */
(PID.TID 0000.0001)                   F
(PID.TID 0000.0001)     ;
(PID.TID 0000.0001) PTRACERS_ImplVertAdv = /* implicit vert. advection flag */
(PID.TID 0000.0001)                   F
(PID.TID 0000.0001)     ;
(PID.TID 0000.0001) PTRACERS_diffKh = /* Laplacian Diffusivity */
(PID.TID 0000.0001)                 0.000000000000000E+00
(PID.TID 0000.0001)     ;
(PID.TID 0000.0001) PTRACERS_diffK4 = /* Biharmonic Diffusivity */
(PID.TID 0000.0001)                 0.000000000000000E+00
(PID.TID 0000.0001)     ;
(PID.TID 0000.0001) PTRACERS_diffKrNr = /* Vertical Diffusivity */
(PID.TID 0000.0001)    15 @  1.000000000000000E-05              /* K =  1: 15 */
(PID.TID 0000.0001)     ;
(PID.TID 0000.0001) PTRACERS_useGMRedi = /* apply GM-Redi */
(PID.TID 0000.0001)                   T
(PID.TID 0000.0001)     ;
(PID.TID 0000.0001) PTRACERS_useDWNSLP = /* apply DOWN-SLOPE Flow */
(PID.TID 0000.0001)                   F
(PID.TID 0000.0001)     ;
(PID.TID 0000.0001) PTRACERS_useKPP = /* apply KPP scheme */
(PID.TID 0000.0001)                   F
(PID.TID 0000.0001)     ;
(PID.TID 0000.0001) PTRACERS_ref = /* Reference vertical profile */
(PID.TID 0000.0001)    15 @  0.000000000000000E+00              /* K =  1: 15 */
(PID.TID 0000.0001)     ;
(PID.TID 0000.0001) PTRACERS_EvPrRn =/* tracer conc. in Evap. & Rain */
(PID.TID 0000.0001)                 1.234567000000000E+05
(PID.TID 0000.0001)     ;
(PID.TID 0000.0001)  -----------------------------------
(PID.TID 0000.0001)  tracer number :   44
(PID.TID 0000.0001) PTRACERS_names = /* Tracer short name */
(PID.TID 0000.0001)               'c27'
(PID.TID 0000.0001)     ;
(PID.TID 0000.0001) PTRACERS_long_names = /* Tracer long name */
(PID.TID 0000.0001)               ''
(PID.TID 0000.0001)     ;
(PID.TID 0000.0001) PTRACERS_ioLabel = /* tracer IO Label */
(PID.TID 0000.0001)               '44'
(PID.TID 0000.0001)     ;
(PID.TID 0000.0001) PTRACERS_advScheme = /* Advection Scheme */
(PID.TID 0000.0001)                      33
(PID.TID 0000.0001)     ;
(PID.TID 0000.0001) PTRACERS_SOM_Advection = /* tracer uses SOM advection scheme */
(PID.TID 0000.0001)                   F
(PID.TID 0000.0001)     ;
(PID.TID 0000.0001) PTRACERS_ImplVertAdv = /* implicit vert. advection flag */
(PID.TID 0000.0001)                   F
(PID.TID 0000.0001)     ;
(PID.TID 0000.0001) PTRACERS_diffKh = /* Laplacian Diffusivity */
(PID.TID 0000.0001)                 0.000000000000000E+00
(PID.TID 0000.0001)     ;
(PID.TID 0000.0001) PTRACERS_diffK4 = /* Biharmonic Diffusivity */
(PID.TID 0000.0001)                 0.000000000000000E+00
(PID.TID 0000.0001)     ;
(PID.TID 0000.0001) PTRACERS_diffKrNr = /* Vertical Diffusivity */
(PID.TID 0000.0001)    15 @  1.000000000000000E-05              /* K =  1: 15 */
(PID.TID 0000.0001)     ;
(PID.TID 0000.0001) PTRACERS_useGMRedi = /* apply GM-Redi */
(PID.TID 0000.0001)                   T
(PID.TID 0000.0001)     ;
(PID.TID 0000.0001) PTRACERS_useDWNSLP = /* apply DOWN-SLOPE Flow */
(PID.TID 0000.0001)                   F
(PID.TID 0000.0001)     ;
(PID.TID 0000.0001) PTRACERS_useKPP = /* apply KPP scheme */
(PID.TID 0000.0001)                   F
(PID.TID 0000.0001)     ;
(PID.TID 0000.0001) PTRACERS_ref = /* Reference vertical profile */
(PID.TID 0000.0001)    15 @  0.000000000000000E+00              /* K =  1: 15 */
(PID.TID 0000.0001)     ;
(PID.TID 0000.0001) PTRACERS_EvPrRn =/* tracer conc. in Evap. & Rain */
(PID.TID 0000.0001)                 1.234567000000000E+05
(PID.TID 0000.0001)     ;
(PID.TID 0000.0001)  -----------------------------------
(PID.TID 0000.0001)  tracer number :   45
(PID.TID 0000.0001) PTRACERS_names = /* Tracer short name */
(PID.TID 0000.0001)               'c28'
(PID.TID 0000.0001)     ;
(PID.TID 0000.0001) PTRACERS_long_names = /* Tracer long name */
(PID.TID 0000.0001)               ''
(PID.TID 0000.0001)     ;
(PID.TID 0000.0001) PTRACERS_ioLabel = /* tracer IO Label */
(PID.TID 0000.0001)               '45'
(PID.TID 0000.0001)     ;
(PID.TID 0000.0001) PTRACERS_advScheme = /* Advection Scheme */
(PID.TID 0000.0001)                      33
(PID.TID 0000.0001)     ;
(PID.TID 0000.0001) PTRACERS_SOM_Advection = /* tracer uses SOM advection scheme */
(PID.TID 0000.0001)                   F
(PID.TID 0000.0001)     ;
(PID.TID 0000.0001) PTRACERS_ImplVertAdv = /* implicit vert. advection flag */
(PID.TID 0000.0001)                   F
(PID.TID 0000.0001)     ;
(PID.TID 0000.0001) PTRACERS_diffKh = /* Laplacian Diffusivity */
(PID.TID 0000.0001)                 0.000000000000000E+00
(PID.TID 0000.0001)     ;
(PID.TID 0000.0001) PTRACERS_diffK4 = /* Biharmonic Diffusivity */
(PID.TID 0000.0001)                 0.000000000000000E+00
(PID.TID 0000.0001)     ;
(PID.TID 0000.0001) PTRACERS_diffKrNr = /* Vertical Diffusivity */
(PID.TID 0000.0001)    15 @  1.000000000000000E-05              /* K =  1: 15 */
(PID.TID 0000.0001)     ;
(PID.TID 0000.0001) PTRACERS_useGMRedi = /* apply GM-Redi */
(PID.TID 0000.0001)                   T
(PID.TID 0000.0001)     ;
(PID.TID 0000.0001) PTRACERS_useDWNSLP = /* apply DOWN-SLOPE Flow */
(PID.TID 0000.0001)                   F
(PID.TID 0000.0001)     ;
(PID.TID 0000.0001) PTRACERS_useKPP = /* apply KPP scheme */
(PID.TID 0000.0001)                   F
(PID.TID 0000.0001)     ;
(PID.TID 0000.0001) PTRACERS_ref = /* Reference vertical profile */
(PID.TID 0000.0001)    15 @  0.000000000000000E+00              /* K =  1: 15 */
(PID.TID 0000.0001)     ;
(PID.TID 0000.0001) PTRACERS_EvPrRn =/* tracer conc. in Evap. & Rain */
(PID.TID 0000.0001)                 1.234567000000000E+05
(PID.TID 0000.0001)     ;
(PID.TID 0000.0001)  -----------------------------------
(PID.TID 0000.0001)  tracer number :   46
(PID.TID 0000.0001) PTRACERS_names = /* Tracer short name */
(PID.TID 0000.0001)               'c29'
(PID.TID 0000.0001)     ;
(PID.TID 0000.0001) PTRACERS_long_names = /* Tracer long name */
(PID.TID 0000.0001)               ''
(PID.TID 0000.0001)     ;
(PID.TID 0000.0001) PTRACERS_ioLabel = /* tracer IO Label */
(PID.TID 0000.0001)               '46'
(PID.TID 0000.0001)     ;
(PID.TID 0000.0001) PTRACERS_advScheme = /* Advection Scheme */
(PID.TID 0000.0001)                      33
(PID.TID 0000.0001)     ;
(PID.TID 0000.0001) PTRACERS_SOM_Advection = /* tracer uses SOM advection scheme */
(PID.TID 0000.0001)                   F
(PID.TID 0000.0001)     ;
(PID.TID 0000.0001) PTRACERS_ImplVertAdv = /* implicit vert. advection flag */
(PID.TID 0000.0001)                   F
(PID.TID 0000.0001)     ;
(PID.TID 0000.0001) PTRACERS_diffKh = /* Laplacian Diffusivity */
(PID.TID 0000.0001)                 0.000000000000000E+00
(PID.TID 0000.0001)     ;
(PID.TID 0000.0001) PTRACERS_diffK4 = /* Biharmonic Diffusivity */
(PID.TID 0000.0001)                 0.000000000000000E+00
(PID.TID 0000.0001)     ;
(PID.TID 0000.0001) PTRACERS_diffKrNr = /* Vertical Diffusivity */
(PID.TID 0000.0001)    15 @  1.000000000000000E-05              /* K =  1: 15 */
(PID.TID 0000.0001)     ;
(PID.TID 0000.0001) PTRACERS_useGMRedi = /* apply GM-Redi */
(PID.TID 0000.0001)                   T
(PID.TID 0000.0001)     ;
(PID.TID 0000.0001) PTRACERS_useDWNSLP = /* apply DOWN-SLOPE Flow */
(PID.TID 0000.0001)                   F
(PID.TID 0000.0001)     ;
(PID.TID 0000.0001) PTRACERS_useKPP = /* apply KPP scheme */
(PID.TID 0000.0001)                   F
(PID.TID 0000.0001)     ;
(PID.TID 0000.0001) PTRACERS_ref = /* Reference vertical profile */
(PID.TID 0000.0001)    15 @  0.000000000000000E+00              /* K =  1: 15 */
(PID.TID 0000.0001)     ;
(PID.TID 0000.0001) PTRACERS_EvPrRn =/* tracer conc. in Evap. & Rain */
(PID.TID 0000.0001)                 1.234567000000000E+05
(PID.TID 0000.0001)     ;
(PID.TID 0000.0001)  -----------------------------------
(PID.TID 0000.0001)  tracer number :   47
(PID.TID 0000.0001) PTRACERS_names = /* Tracer short name */
(PID.TID 0000.0001)               'c30'
(PID.TID 0000.0001)     ;
(PID.TID 0000.0001) PTRACERS_long_names = /* Tracer long name */
(PID.TID 0000.0001)               ''
(PID.TID 0000.0001)     ;
(PID.TID 0000.0001) PTRACERS_ioLabel = /* tracer IO Label */
(PID.TID 0000.0001)               '47'
(PID.TID 0000.0001)     ;
(PID.TID 0000.0001) PTRACERS_advScheme = /* Advection Scheme */
(PID.TID 0000.0001)                      33
(PID.TID 0000.0001)     ;
(PID.TID 0000.0001) PTRACERS_SOM_Advection = /* tracer uses SOM advection scheme */
(PID.TID 0000.0001)                   F
(PID.TID 0000.0001)     ;
(PID.TID 0000.0001) PTRACERS_ImplVertAdv = /* implicit vert. advection flag */
(PID.TID 0000.0001)                   F
(PID.TID 0000.0001)     ;
(PID.TID 0000.0001) PTRACERS_diffKh = /* Laplacian Diffusivity */
(PID.TID 0000.0001)                 0.000000000000000E+00
(PID.TID 0000.0001)     ;
(PID.TID 0000.0001) PTRACERS_diffK4 = /* Biharmonic Diffusivity */
(PID.TID 0000.0001)                 0.000000000000000E+00
(PID.TID 0000.0001)     ;
(PID.TID 0000.0001) PTRACERS_diffKrNr = /* Vertical Diffusivity */
(PID.TID 0000.0001)    15 @  1.000000000000000E-05              /* K =  1: 15 */
(PID.TID 0000.0001)     ;
(PID.TID 0000.0001) PTRACERS_useGMRedi = /* apply GM-Redi */
(PID.TID 0000.0001)                   T
(PID.TID 0000.0001)     ;
(PID.TID 0000.0001) PTRACERS_useDWNSLP = /* apply DOWN-SLOPE Flow */
(PID.TID 0000.0001)                   F
(PID.TID 0000.0001)     ;
(PID.TID 0000.0001) PTRACERS_useKPP = /* apply KPP scheme */
(PID.TID 0000.0001)                   F
(PID.TID 0000.0001)     ;
(PID.TID 0000.0001) PTRACERS_ref = /* Reference vertical profile */
(PID.TID 0000.0001)    15 @  0.000000000000000E+00              /* K =  1: 15 */
(PID.TID 0000.0001)     ;
(PID.TID 0000.0001) PTRACERS_EvPrRn =/* tracer conc. in Evap. & Rain */
(PID.TID 0000.0001)                 1.234567000000000E+05
(PID.TID 0000.0001)     ;
(PID.TID 0000.0001)  -----------------------------------
(PID.TID 0000.0001)  tracer number :   48
(PID.TID 0000.0001) PTRACERS_names = /* Tracer short name */
(PID.TID 0000.0001)               'c31'
(PID.TID 0000.0001)     ;
(PID.TID 0000.0001) PTRACERS_long_names = /* Tracer long name */
(PID.TID 0000.0001)               ''
(PID.TID 0000.0001)     ;
(PID.TID 0000.0001) PTRACERS_ioLabel = /* tracer IO Label */
(PID.TID 0000.0001)               '48'
(PID.TID 0000.0001)     ;
(PID.TID 0000.0001) PTRACERS_advScheme = /* Advection Scheme */
(PID.TID 0000.0001)                      33
(PID.TID 0000.0001)     ;
(PID.TID 0000.0001) PTRACERS_SOM_Advection = /* tracer uses SOM advection scheme */
(PID.TID 0000.0001)                   F
(PID.TID 0000.0001)     ;
(PID.TID 0000.0001) PTRACERS_ImplVertAdv = /* implicit vert. advection flag */
(PID.TID 0000.0001)                   F
(PID.TID 0000.0001)     ;
(PID.TID 0000.0001) PTRACERS_diffKh = /* Laplacian Diffusivity */
(PID.TID 0000.0001)                 0.000000000000000E+00
(PID.TID 0000.0001)     ;
(PID.TID 0000.0001) PTRACERS_diffK4 = /* Biharmonic Diffusivity */
(PID.TID 0000.0001)                 0.000000000000000E+00
(PID.TID 0000.0001)     ;
(PID.TID 0000.0001) PTRACERS_diffKrNr = /* Vertical Diffusivity */
(PID.TID 0000.0001)    15 @  1.000000000000000E-05              /* K =  1: 15 */
(PID.TID 0000.0001)     ;
(PID.TID 0000.0001) PTRACERS_useGMRedi = /* apply GM-Redi */
(PID.TID 0000.0001)                   T
(PID.TID 0000.0001)     ;
(PID.TID 0000.0001) PTRACERS_useDWNSLP = /* apply DOWN-SLOPE Flow */
(PID.TID 0000.0001)                   F
(PID.TID 0000.0001)     ;
(PID.TID 0000.0001) PTRACERS_useKPP = /* apply KPP scheme */
(PID.TID 0000.0001)                   F
(PID.TID 0000.0001)     ;
(PID.TID 0000.0001) PTRACERS_ref = /* Reference vertical profile */
(PID.TID 0000.0001)    15 @  0.000000000000000E+00              /* K =  1: 15 */
(PID.TID 0000.0001)     ;
(PID.TID 0000.0001) PTRACERS_EvPrRn =/* tracer conc. in Evap. & Rain */
(PID.TID 0000.0001)                 1.234567000000000E+05
(PID.TID 0000.0001)     ;
(PID.TID 0000.0001)  -----------------------------------
(PID.TID 0000.0001)  tracer number :   49
(PID.TID 0000.0001) PTRACERS_names = /* Tracer short name */
(PID.TID 0000.0001)               'c32'
(PID.TID 0000.0001)     ;
(PID.TID 0000.0001) PTRACERS_long_names = /* Tracer long name */
(PID.TID 0000.0001)               ''
(PID.TID 0000.0001)     ;
(PID.TID 0000.0001) PTRACERS_ioLabel = /* tracer IO Label */
(PID.TID 0000.0001)               '49'
(PID.TID 0000.0001)     ;
(PID.TID 0000.0001) PTRACERS_advScheme = /* Advection Scheme */
(PID.TID 0000.0001)                      33
(PID.TID 0000.0001)     ;
(PID.TID 0000.0001) PTRACERS_SOM_Advection = /* tracer uses SOM advection scheme */
(PID.TID 0000.0001)                   F
(PID.TID 0000.0001)     ;
(PID.TID 0000.0001) PTRACERS_ImplVertAdv = /* implicit vert. advection flag */
(PID.TID 0000.0001)                   F
(PID.TID 0000.0001)     ;
(PID.TID 0000.0001) PTRACERS_diffKh = /* Laplacian Diffusivity */
(PID.TID 0000.0001)                 0.000000000000000E+00
(PID.TID 0000.0001)     ;
(PID.TID 0000.0001) PTRACERS_diffK4 = /* Biharmonic Diffusivity */
(PID.TID 0000.0001)                 0.000000000000000E+00
(PID.TID 0000.0001)     ;
(PID.TID 0000.0001) PTRACERS_diffKrNr = /* Vertical Diffusivity */
(PID.TID 0000.0001)    15 @  1.000000000000000E-05              /* K =  1: 15 */
(PID.TID 0000.0001)     ;
(PID.TID 0000.0001) PTRACERS_useGMRedi = /* apply GM-Redi */
(PID.TID 0000.0001)                   T
(PID.TID 0000.0001)     ;
(PID.TID 0000.0001) PTRACERS_useDWNSLP = /* apply DOWN-SLOPE Flow */
(PID.TID 0000.0001)                   F
(PID.TID 0000.0001)     ;
(PID.TID 0000.0001) PTRACERS_useKPP = /* apply KPP scheme */
(PID.TID 0000.0001)                   F
(PID.TID 0000.0001)     ;
(PID.TID 0000.0001) PTRACERS_ref = /* Reference vertical profile */
(PID.TID 0000.0001)    15 @  0.000000000000000E+00              /* K =  1: 15 */
(PID.TID 0000.0001)     ;
(PID.TID 0000.0001) PTRACERS_EvPrRn =/* tracer conc. in Evap. & Rain */
(PID.TID 0000.0001)                 1.234567000000000E+05
(PID.TID 0000.0001)     ;
(PID.TID 0000.0001)  -----------------------------------
(PID.TID 0000.0001)  tracer number :   50
(PID.TID 0000.0001) PTRACERS_names = /* Tracer short name */
(PID.TID 0000.0001)               'c33'
(PID.TID 0000.0001)     ;
(PID.TID 0000.0001) PTRACERS_long_names = /* Tracer long name */
(PID.TID 0000.0001)               ''
(PID.TID 0000.0001)     ;
(PID.TID 0000.0001) PTRACERS_ioLabel = /* tracer IO Label */
(PID.TID 0000.0001)               '50'
(PID.TID 0000.0001)     ;
(PID.TID 0000.0001) PTRACERS_advScheme = /* Advection Scheme */
(PID.TID 0000.0001)                      33
(PID.TID 0000.0001)     ;
(PID.TID 0000.0001) PTRACERS_SOM_Advection = /* tracer uses SOM advection scheme */
(PID.TID 0000.0001)                   F
(PID.TID 0000.0001)     ;
(PID.TID 0000.0001) PTRACERS_ImplVertAdv = /* implicit vert. advection flag */
(PID.TID 0000.0001)                   F
(PID.TID 0000.0001)     ;
(PID.TID 0000.0001) PTRACERS_diffKh = /* Laplacian Diffusivity */
(PID.TID 0000.0001)                 0.000000000000000E+00
(PID.TID 0000.0001)     ;
(PID.TID 0000.0001) PTRACERS_diffK4 = /* Biharmonic Diffusivity */
(PID.TID 0000.0001)                 0.000000000000000E+00
(PID.TID 0000.0001)     ;
(PID.TID 0000.0001) PTRACERS_diffKrNr = /* Vertical Diffusivity */
(PID.TID 0000.0001)    15 @  1.000000000000000E-05              /* K =  1: 15 */
(PID.TID 0000.0001)     ;
(PID.TID 0000.0001) PTRACERS_useGMRedi = /* apply GM-Redi */
(PID.TID 0000.0001)                   T
(PID.TID 0000.0001)     ;
(PID.TID 0000.0001) PTRACERS_useDWNSLP = /* apply DOWN-SLOPE Flow */
(PID.TID 0000.0001)                   F
(PID.TID 0000.0001)     ;
(PID.TID 0000.0001) PTRACERS_useKPP = /* apply KPP scheme */
(PID.TID 0000.0001)                   F
(PID.TID 0000.0001)     ;
(PID.TID 0000.0001) PTRACERS_ref = /* Reference vertical profile */
(PID.TID 0000.0001)    15 @  0.000000000000000E+00              /* K =  1: 15 */
(PID.TID 0000.0001)     ;
(PID.TID 0000.0001) PTRACERS_EvPrRn =/* tracer conc. in Evap. & Rain */
(PID.TID 0000.0001)                 1.234567000000000E+05
(PID.TID 0000.0001)     ;
(PID.TID 0000.0001)  -----------------------------------
(PID.TID 0000.0001)  tracer number :   51
(PID.TID 0000.0001) PTRACERS_names = /* Tracer short name */
(PID.TID 0000.0001)               'c34'
(PID.TID 0000.0001)     ;
(PID.TID 0000.0001) PTRACERS_long_names = /* Tracer long name */
(PID.TID 0000.0001)               ''
(PID.TID 0000.0001)     ;
(PID.TID 0000.0001) PTRACERS_ioLabel = /* tracer IO Label */
(PID.TID 0000.0001)               '51'
(PID.TID 0000.0001)     ;
(PID.TID 0000.0001) PTRACERS_advScheme = /* Advection Scheme */
(PID.TID 0000.0001)                      33
(PID.TID 0000.0001)     ;
(PID.TID 0000.0001) PTRACERS_SOM_Advection = /* tracer uses SOM advection scheme */
(PID.TID 0000.0001)                   F
(PID.TID 0000.0001)     ;
(PID.TID 0000.0001) PTRACERS_ImplVertAdv = /* implicit vert. advection flag */
(PID.TID 0000.0001)                   F
(PID.TID 0000.0001)     ;
(PID.TID 0000.0001) PTRACERS_diffKh = /* Laplacian Diffusivity */
(PID.TID 0000.0001)                 0.000000000000000E+00
(PID.TID 0000.0001)     ;
(PID.TID 0000.0001) PTRACERS_diffK4 = /* Biharmonic Diffusivity */
(PID.TID 0000.0001)                 0.000000000000000E+00
(PID.TID 0000.0001)     ;
(PID.TID 0000.0001) PTRACERS_diffKrNr = /* Vertical Diffusivity */
(PID.TID 0000.0001)    15 @  1.000000000000000E-05              /* K =  1: 15 */
(PID.TID 0000.0001)     ;
(PID.TID 0000.0001) PTRACERS_useGMRedi = /* apply GM-Redi */
(PID.TID 0000.0001)                   T
(PID.TID 0000.0001)     ;
(PID.TID 0000.0001) PTRACERS_useDWNSLP = /* apply DOWN-SLOPE Flow */
(PID.TID 0000.0001)                   F
(PID.TID 0000.0001)     ;
(PID.TID 0000.0001) PTRACERS_useKPP = /* apply KPP scheme */
(PID.TID 0000.0001)                   F
(PID.TID 0000.0001)     ;
(PID.TID 0000.0001) PTRACERS_ref = /* Reference vertical profile */
(PID.TID 0000.0001)    15 @  0.000000000000000E+00              /* K =  1: 15 */
(PID.TID 0000.0001)     ;
(PID.TID 0000.0001) PTRACERS_EvPrRn =/* tracer conc. in Evap. & Rain */
(PID.TID 0000.0001)                 1.234567000000000E+05
(PID.TID 0000.0001)     ;
(PID.TID 0000.0001)  -----------------------------------
(PID.TID 0000.0001)  tracer number :   52
(PID.TID 0000.0001) PTRACERS_names = /* Tracer short name */
(PID.TID 0000.0001)               'c35'
(PID.TID 0000.0001)     ;
(PID.TID 0000.0001) PTRACERS_long_names = /* Tracer long name */
(PID.TID 0000.0001)               ''
(PID.TID 0000.0001)     ;
(PID.TID 0000.0001) PTRACERS_ioLabel = /* tracer IO Label */
(PID.TID 0000.0001)               '52'
(PID.TID 0000.0001)     ;
(PID.TID 0000.0001) PTRACERS_advScheme = /* Advection Scheme */
(PID.TID 0000.0001)                      33
(PID.TID 0000.0001)     ;
(PID.TID 0000.0001) PTRACERS_SOM_Advection = /* tracer uses SOM advection scheme */
(PID.TID 0000.0001)                   F
(PID.TID 0000.0001)     ;
(PID.TID 0000.0001) PTRACERS_ImplVertAdv = /* implicit vert. advection flag */
(PID.TID 0000.0001)                   F
(PID.TID 0000.0001)     ;
(PID.TID 0000.0001) PTRACERS_diffKh = /* Laplacian Diffusivity */
(PID.TID 0000.0001)                 0.000000000000000E+00
(PID.TID 0000.0001)     ;
(PID.TID 0000.0001) PTRACERS_diffK4 = /* Biharmonic Diffusivity */
(PID.TID 0000.0001)                 0.000000000000000E+00
(PID.TID 0000.0001)     ;
(PID.TID 0000.0001) PTRACERS_diffKrNr = /* Vertical Diffusivity */
(PID.TID 0000.0001)    15 @  1.000000000000000E-05              /* K =  1: 15 */
(PID.TID 0000.0001)     ;
(PID.TID 0000.0001) PTRACERS_useGMRedi = /* apply GM-Redi */
(PID.TID 0000.0001)                   T
(PID.TID 0000.0001)     ;
(PID.TID 0000.0001) PTRACERS_useDWNSLP = /* apply DOWN-SLOPE Flow */
(PID.TID 0000.0001)                   F
(PID.TID 0000.0001)     ;
(PID.TID 0000.0001) PTRACERS_useKPP = /* apply KPP scheme */
(PID.TID 0000.0001)                   F
(PID.TID 0000.0001)     ;
(PID.TID 0000.0001) PTRACERS_ref = /* Reference vertical profile */
(PID.TID 0000.0001)    15 @  0.000000000000000E+00              /* K =  1: 15 */
(PID.TID 0000.0001)     ;
(PID.TID 0000.0001) PTRACERS_EvPrRn =/* tracer conc. in Evap. & Rain */
(PID.TID 0000.0001)                 1.234567000000000E+05
(PID.TID 0000.0001)     ;
(PID.TID 0000.0001)  -----------------------------------
(PID.TID 0000.0001)  tracer number :   53
(PID.TID 0000.0001) PTRACERS_names = /* Tracer short name */
(PID.TID 0000.0001)               'c36'
(PID.TID 0000.0001)     ;
(PID.TID 0000.0001) PTRACERS_long_names = /* Tracer long name */
(PID.TID 0000.0001)               ''
(PID.TID 0000.0001)     ;
(PID.TID 0000.0001) PTRACERS_ioLabel = /* tracer IO Label */
(PID.TID 0000.0001)               '53'
(PID.TID 0000.0001)     ;
(PID.TID 0000.0001) PTRACERS_advScheme = /* Advection Scheme */
(PID.TID 0000.0001)                      33
(PID.TID 0000.0001)     ;
(PID.TID 0000.0001) PTRACERS_SOM_Advection = /* tracer uses SOM advection scheme */
(PID.TID 0000.0001)                   F
(PID.TID 0000.0001)     ;
(PID.TID 0000.0001) PTRACERS_ImplVertAdv = /* implicit vert. advection flag */
(PID.TID 0000.0001)                   F
(PID.TID 0000.0001)     ;
(PID.TID 0000.0001) PTRACERS_diffKh = /* Laplacian Diffusivity */
(PID.TID 0000.0001)                 0.000000000000000E+00
(PID.TID 0000.0001)     ;
(PID.TID 0000.0001) PTRACERS_diffK4 = /* Biharmonic Diffusivity */
(PID.TID 0000.0001)                 0.000000000000000E+00
(PID.TID 0000.0001)     ;
(PID.TID 0000.0001) PTRACERS_diffKrNr = /* Vertical Diffusivity */
(PID.TID 0000.0001)    15 @  1.000000000000000E-05              /* K =  1: 15 */
(PID.TID 0000.0001)     ;
(PID.TID 0000.0001) PTRACERS_useGMRedi = /* apply GM-Redi */
(PID.TID 0000.0001)                   T
(PID.TID 0000.0001)     ;
(PID.TID 0000.0001) PTRACERS_useDWNSLP = /* apply DOWN-SLOPE Flow */
(PID.TID 0000.0001)                   F
(PID.TID 0000.0001)     ;
(PID.TID 0000.0001) PTRACERS_useKPP = /* apply KPP scheme */
(PID.TID 0000.0001)                   F
(PID.TID 0000.0001)     ;
(PID.TID 0000.0001) PTRACERS_ref = /* Reference vertical profile */
(PID.TID 0000.0001)    15 @  0.000000000000000E+00              /* K =  1: 15 */
(PID.TID 0000.0001)     ;
(PID.TID 0000.0001) PTRACERS_EvPrRn =/* tracer conc. in Evap. & Rain */
(PID.TID 0000.0001)                 1.234567000000000E+05
(PID.TID 0000.0001)     ;
(PID.TID 0000.0001)  -----------------------------------
(PID.TID 0000.0001)  tracer number :   54
(PID.TID 0000.0001) PTRACERS_names = /* Tracer short name */
(PID.TID 0000.0001)               'c37'
(PID.TID 0000.0001)     ;
(PID.TID 0000.0001) PTRACERS_long_names = /* Tracer long name */
(PID.TID 0000.0001)               ''
(PID.TID 0000.0001)     ;
(PID.TID 0000.0001) PTRACERS_ioLabel = /* tracer IO Label */
(PID.TID 0000.0001)               '54'
(PID.TID 0000.0001)     ;
(PID.TID 0000.0001) PTRACERS_advScheme = /* Advection Scheme */
(PID.TID 0000.0001)                      33
(PID.TID 0000.0001)     ;
(PID.TID 0000.0001) PTRACERS_SOM_Advection = /* tracer uses SOM advection scheme */
(PID.TID 0000.0001)                   F
(PID.TID 0000.0001)     ;
(PID.TID 0000.0001) PTRACERS_ImplVertAdv = /* implicit vert. advection flag */
(PID.TID 0000.0001)                   F
(PID.TID 0000.0001)     ;
(PID.TID 0000.0001) PTRACERS_diffKh = /* Laplacian Diffusivity */
(PID.TID 0000.0001)                 0.000000000000000E+00
(PID.TID 0000.0001)     ;
(PID.TID 0000.0001) PTRACERS_diffK4 = /* Biharmonic Diffusivity */
(PID.TID 0000.0001)                 0.000000000000000E+00
(PID.TID 0000.0001)     ;
(PID.TID 0000.0001) PTRACERS_diffKrNr = /* Vertical Diffusivity */
(PID.TID 0000.0001)    15 @  1.000000000000000E-05              /* K =  1: 15 */
(PID.TID 0000.0001)     ;
(PID.TID 0000.0001) PTRACERS_useGMRedi = /* apply GM-Redi */
(PID.TID 0000.0001)                   T
(PID.TID 0000.0001)     ;
(PID.TID 0000.0001) PTRACERS_useDWNSLP = /* apply DOWN-SLOPE Flow */
(PID.TID 0000.0001)                   F
(PID.TID 0000.0001)     ;
(PID.TID 0000.0001) PTRACERS_useKPP = /* apply KPP scheme */
(PID.TID 0000.0001)                   F
(PID.TID 0000.0001)     ;
(PID.TID 0000.0001) PTRACERS_ref = /* Reference vertical profile */
(PID.TID 0000.0001)    15 @  0.000000000000000E+00              /* K =  1: 15 */
(PID.TID 0000.0001)     ;
(PID.TID 0000.0001) PTRACERS_EvPrRn =/* tracer conc. in Evap. & Rain */
(PID.TID 0000.0001)                 1.234567000000000E+05
(PID.TID 0000.0001)     ;
(PID.TID 0000.0001)  -----------------------------------
(PID.TID 0000.0001)  tracer number :   55
(PID.TID 0000.0001) PTRACERS_names = /* Tracer short name */
(PID.TID 0000.0001)               'c38'
(PID.TID 0000.0001)     ;
(PID.TID 0000.0001) PTRACERS_long_names = /* Tracer long name */
(PID.TID 0000.0001)               ''
(PID.TID 0000.0001)     ;
(PID.TID 0000.0001) PTRACERS_ioLabel = /* tracer IO Label */
(PID.TID 0000.0001)               '55'
(PID.TID 0000.0001)     ;
(PID.TID 0000.0001) PTRACERS_advScheme = /* Advection Scheme */
(PID.TID 0000.0001)                      33
(PID.TID 0000.0001)     ;
(PID.TID 0000.0001) PTRACERS_SOM_Advection = /* tracer uses SOM advection scheme */
(PID.TID 0000.0001)                   F
(PID.TID 0000.0001)     ;
(PID.TID 0000.0001) PTRACERS_ImplVertAdv = /* implicit vert. advection flag */
(PID.TID 0000.0001)                   F
(PID.TID 0000.0001)     ;
(PID.TID 0000.0001) PTRACERS_diffKh = /* Laplacian Diffusivity */
(PID.TID 0000.0001)                 0.000000000000000E+00
(PID.TID 0000.0001)     ;
(PID.TID 0000.0001) PTRACERS_diffK4 = /* Biharmonic Diffusivity */
(PID.TID 0000.0001)                 0.000000000000000E+00
(PID.TID 0000.0001)     ;
(PID.TID 0000.0001) PTRACERS_diffKrNr = /* Vertical Diffusivity */
(PID.TID 0000.0001)    15 @  1.000000000000000E-05              /* K =  1: 15 */
(PID.TID 0000.0001)     ;
(PID.TID 0000.0001) PTRACERS_useGMRedi = /* apply GM-Redi */
(PID.TID 0000.0001)                   T
(PID.TID 0000.0001)     ;
(PID.TID 0000.0001) PTRACERS_useDWNSLP = /* apply DOWN-SLOPE Flow */
(PID.TID 0000.0001)                   F
(PID.TID 0000.0001)     ;
(PID.TID 0000.0001) PTRACERS_useKPP = /* apply KPP scheme */
(PID.TID 0000.0001)                   F
(PID.TID 0000.0001)     ;
(PID.TID 0000.0001) PTRACERS_ref = /* Reference vertical profile */
(PID.TID 0000.0001)    15 @  0.000000000000000E+00              /* K =  1: 15 */
(PID.TID 0000.0001)     ;
(PID.TID 0000.0001) PTRACERS_EvPrRn =/* tracer conc. in Evap. & Rain */
(PID.TID 0000.0001)                 1.234567000000000E+05
(PID.TID 0000.0001)     ;
(PID.TID 0000.0001)  -----------------------------------
(PID.TID 0000.0001)  tracer number :   56
(PID.TID 0000.0001) PTRACERS_names = /* Tracer short name */
(PID.TID 0000.0001)               'c39'
(PID.TID 0000.0001)     ;
(PID.TID 0000.0001) PTRACERS_long_names = /* Tracer long name */
(PID.TID 0000.0001)               ''
(PID.TID 0000.0001)     ;
(PID.TID 0000.0001) PTRACERS_ioLabel = /* tracer IO Label */
(PID.TID 0000.0001)               '56'
(PID.TID 0000.0001)     ;
(PID.TID 0000.0001) PTRACERS_advScheme = /* Advection Scheme */
(PID.TID 0000.0001)                      33
(PID.TID 0000.0001)     ;
(PID.TID 0000.0001) PTRACERS_SOM_Advection = /* tracer uses SOM advection scheme */
(PID.TID 0000.0001)                   F
(PID.TID 0000.0001)     ;
(PID.TID 0000.0001) PTRACERS_ImplVertAdv = /* implicit vert. advection flag */
(PID.TID 0000.0001)                   F
(PID.TID 0000.0001)     ;
(PID.TID 0000.0001) PTRACERS_diffKh = /* Laplacian Diffusivity */
(PID.TID 0000.0001)                 0.000000000000000E+00
(PID.TID 0000.0001)     ;
(PID.TID 0000.0001) PTRACERS_diffK4 = /* Biharmonic Diffusivity */
(PID.TID 0000.0001)                 0.000000000000000E+00
(PID.TID 0000.0001)     ;
(PID.TID 0000.0001) PTRACERS_diffKrNr = /* Vertical Diffusivity */
(PID.TID 0000.0001)    15 @  1.000000000000000E-05              /* K =  1: 15 */
(PID.TID 0000.0001)     ;
(PID.TID 0000.0001) PTRACERS_useGMRedi = /* apply GM-Redi */
(PID.TID 0000.0001)                   T
(PID.TID 0000.0001)     ;
(PID.TID 0000.0001) PTRACERS_useDWNSLP = /* apply DOWN-SLOPE Flow */
(PID.TID 0000.0001)                   F
(PID.TID 0000.0001)     ;
(PID.TID 0000.0001) PTRACERS_useKPP = /* apply KPP scheme */
(PID.TID 0000.0001)                   F
(PID.TID 0000.0001)     ;
(PID.TID 0000.0001) PTRACERS_ref = /* Reference vertical profile */
(PID.TID 0000.0001)    15 @  0.000000000000000E+00              /* K =  1: 15 */
(PID.TID 0000.0001)     ;
(PID.TID 0000.0001) PTRACERS_EvPrRn =/* tracer conc. in Evap. & Rain */
(PID.TID 0000.0001)                 1.234567000000000E+05
(PID.TID 0000.0001)     ;
(PID.TID 0000.0001)  -----------------------------------
(PID.TID 0000.0001)  tracer number :   57
(PID.TID 0000.0001) PTRACERS_names = /* Tracer short name */
(PID.TID 0000.0001)               'c40'
(PID.TID 0000.0001)     ;
(PID.TID 0000.0001) PTRACERS_long_names = /* Tracer long name */
(PID.TID 0000.0001)               ''
(PID.TID 0000.0001)     ;
(PID.TID 0000.0001) PTRACERS_ioLabel = /* tracer IO Label */
(PID.TID 0000.0001)               '57'
(PID.TID 0000.0001)     ;
(PID.TID 0000.0001) PTRACERS_advScheme = /* Advection Scheme */
(PID.TID 0000.0001)                      33
(PID.TID 0000.0001)     ;
(PID.TID 0000.0001) PTRACERS_SOM_Advection = /* tracer uses SOM advection scheme */
(PID.TID 0000.0001)                   F
(PID.TID 0000.0001)     ;
(PID.TID 0000.0001) PTRACERS_ImplVertAdv = /* implicit vert. advection flag */
(PID.TID 0000.0001)                   F
(PID.TID 0000.0001)     ;
(PID.TID 0000.0001) PTRACERS_diffKh = /* Laplacian Diffusivity */
(PID.TID 0000.0001)                 0.000000000000000E+00
(PID.TID 0000.0001)     ;
(PID.TID 0000.0001) PTRACERS_diffK4 = /* Biharmonic Diffusivity */
(PID.TID 0000.0001)                 0.000000000000000E+00
(PID.TID 0000.0001)     ;
(PID.TID 0000.0001) PTRACERS_diffKrNr = /* Vertical Diffusivity */
(PID.TID 0000.0001)    15 @  1.000000000000000E-05              /* K =  1: 15 */
(PID.TID 0000.0001)     ;
(PID.TID 0000.0001) PTRACERS_useGMRedi = /* apply GM-Redi */
(PID.TID 0000.0001)                   T
(PID.TID 0000.0001)     ;
(PID.TID 0000.0001) PTRACERS_useDWNSLP = /* apply DOWN-SLOPE Flow */
(PID.TID 0000.0001)                   F
(PID.TID 0000.0001)     ;
(PID.TID 0000.0001) PTRACERS_useKPP = /* apply KPP scheme */
(PID.TID 0000.0001)                   F
(PID.TID 0000.0001)     ;
(PID.TID 0000.0001) PTRACERS_ref = /* Reference vertical profile */
(PID.TID 0000.0001)    15 @  0.000000000000000E+00              /* K =  1: 15 */
(PID.TID 0000.0001)     ;
(PID.TID 0000.0001) PTRACERS_EvPrRn =/* tracer conc. in Evap. & Rain */
(PID.TID 0000.0001)                 1.234567000000000E+05
(PID.TID 0000.0001)     ;
(PID.TID 0000.0001)  -----------------------------------
(PID.TID 0000.0001)  tracer number :   58
(PID.TID 0000.0001) PTRACERS_names = /* Tracer short name */
(PID.TID 0000.0001)               'c41'
(PID.TID 0000.0001)     ;
(PID.TID 0000.0001) PTRACERS_long_names = /* Tracer long name */
(PID.TID 0000.0001)               ''
(PID.TID 0000.0001)     ;
(PID.TID 0000.0001) PTRACERS_ioLabel = /* tracer IO Label */
(PID.TID 0000.0001)               '58'
(PID.TID 0000.0001)     ;
(PID.TID 0000.0001) PTRACERS_advScheme = /* Advection Scheme */
(PID.TID 0000.0001)                      33
(PID.TID 0000.0001)     ;
(PID.TID 0000.0001) PTRACERS_SOM_Advection = /* tracer uses SOM advection scheme */
(PID.TID 0000.0001)                   F
(PID.TID 0000.0001)     ;
(PID.TID 0000.0001) PTRACERS_ImplVertAdv = /* implicit vert. advection flag */
(PID.TID 0000.0001)                   F
(PID.TID 0000.0001)     ;
(PID.TID 0000.0001) PTRACERS_diffKh = /* Laplacian Diffusivity */
(PID.TID 0000.0001)                 0.000000000000000E+00
(PID.TID 0000.0001)     ;
(PID.TID 0000.0001) PTRACERS_diffK4 = /* Biharmonic Diffusivity */
(PID.TID 0000.0001)                 0.000000000000000E+00
(PID.TID 0000.0001)     ;
(PID.TID 0000.0001) PTRACERS_diffKrNr = /* Vertical Diffusivity */
(PID.TID 0000.0001)    15 @  1.000000000000000E-05              /* K =  1: 15 */
(PID.TID 0000.0001)     ;
(PID.TID 0000.0001) PTRACERS_useGMRedi = /* apply GM-Redi */
(PID.TID 0000.0001)                   T
(PID.TID 0000.0001)     ;
(PID.TID 0000.0001) PTRACERS_useDWNSLP = /* apply DOWN-SLOPE Flow */
(PID.TID 0000.0001)                   F
(PID.TID 0000.0001)     ;
(PID.TID 0000.0001) PTRACERS_useKPP = /* apply KPP scheme */
(PID.TID 0000.0001)                   F
(PID.TID 0000.0001)     ;
(PID.TID 0000.0001) PTRACERS_ref = /* Reference vertical profile */
(PID.TID 0000.0001)    15 @  0.000000000000000E+00              /* K =  1: 15 */
(PID.TID 0000.0001)     ;
(PID.TID 0000.0001) PTRACERS_EvPrRn =/* tracer conc. in Evap. & Rain */
(PID.TID 0000.0001)                 1.234567000000000E+05
(PID.TID 0000.0001)     ;
(PID.TID 0000.0001)  -----------------------------------
(PID.TID 0000.0001)  tracer number :   59
(PID.TID 0000.0001) PTRACERS_names = /* Tracer short name */
(PID.TID 0000.0001)               'c42'
(PID.TID 0000.0001)     ;
(PID.TID 0000.0001) PTRACERS_long_names = /* Tracer long name */
(PID.TID 0000.0001)               ''
(PID.TID 0000.0001)     ;
(PID.TID 0000.0001) PTRACERS_ioLabel = /* tracer IO Label */
(PID.TID 0000.0001)               '59'
(PID.TID 0000.0001)     ;
(PID.TID 0000.0001) PTRACERS_advScheme = /* Advection Scheme */
(PID.TID 0000.0001)                      33
(PID.TID 0000.0001)     ;
(PID.TID 0000.0001) PTRACERS_SOM_Advection = /* tracer uses SOM advection scheme */
(PID.TID 0000.0001)                   F
(PID.TID 0000.0001)     ;
(PID.TID 0000.0001) PTRACERS_ImplVertAdv = /* implicit vert. advection flag */
(PID.TID 0000.0001)                   F
(PID.TID 0000.0001)     ;
(PID.TID 0000.0001) PTRACERS_diffKh = /* Laplacian Diffusivity */
(PID.TID 0000.0001)                 0.000000000000000E+00
(PID.TID 0000.0001)     ;
(PID.TID 0000.0001) PTRACERS_diffK4 = /* Biharmonic Diffusivity */
(PID.TID 0000.0001)                 0.000000000000000E+00
(PID.TID 0000.0001)     ;
(PID.TID 0000.0001) PTRACERS_diffKrNr = /* Vertical Diffusivity */
(PID.TID 0000.0001)    15 @  1.000000000000000E-05              /* K =  1: 15 */
(PID.TID 0000.0001)     ;
(PID.TID 0000.0001) PTRACERS_useGMRedi = /* apply GM-Redi */
(PID.TID 0000.0001)                   T
(PID.TID 0000.0001)     ;
(PID.TID 0000.0001) PTRACERS_useDWNSLP = /* apply DOWN-SLOPE Flow */
(PID.TID 0000.0001)                   F
(PID.TID 0000.0001)     ;
(PID.TID 0000.0001) PTRACERS_useKPP = /* apply KPP scheme */
(PID.TID 0000.0001)                   F
(PID.TID 0000.0001)     ;
(PID.TID 0000.0001) PTRACERS_ref = /* Reference vertical profile */
(PID.TID 0000.0001)    15 @  0.000000000000000E+00              /* K =  1: 15 */
(PID.TID 0000.0001)     ;
(PID.TID 0000.0001) PTRACERS_EvPrRn =/* tracer conc. in Evap. & Rain */
(PID.TID 0000.0001)                 1.234567000000000E+05
(PID.TID 0000.0001)     ;
(PID.TID 0000.0001)  -----------------------------------
(PID.TID 0000.0001)  tracer number :   60
(PID.TID 0000.0001) PTRACERS_names = /* Tracer short name */
(PID.TID 0000.0001)               'c43'
(PID.TID 0000.0001)     ;
(PID.TID 0000.0001) PTRACERS_long_names = /* Tracer long name */
(PID.TID 0000.0001)               ''
(PID.TID 0000.0001)     ;
(PID.TID 0000.0001) PTRACERS_ioLabel = /* tracer IO Label */
(PID.TID 0000.0001)               '60'
(PID.TID 0000.0001)     ;
(PID.TID 0000.0001) PTRACERS_advScheme = /* Advection Scheme */
(PID.TID 0000.0001)                      33
(PID.TID 0000.0001)     ;
(PID.TID 0000.0001) PTRACERS_SOM_Advection = /* tracer uses SOM advection scheme */
(PID.TID 0000.0001)                   F
(PID.TID 0000.0001)     ;
(PID.TID 0000.0001) PTRACERS_ImplVertAdv = /* implicit vert. advection flag */
(PID.TID 0000.0001)                   F
(PID.TID 0000.0001)     ;
(PID.TID 0000.0001) PTRACERS_diffKh = /* Laplacian Diffusivity */
(PID.TID 0000.0001)                 0.000000000000000E+00
(PID.TID 0000.0001)     ;
(PID.TID 0000.0001) PTRACERS_diffK4 = /* Biharmonic Diffusivity */
(PID.TID 0000.0001)                 0.000000000000000E+00
(PID.TID 0000.0001)     ;
(PID.TID 0000.0001) PTRACERS_diffKrNr = /* Vertical Diffusivity */
(PID.TID 0000.0001)    15 @  1.000000000000000E-05              /* K =  1: 15 */
(PID.TID 0000.0001)     ;
(PID.TID 0000.0001) PTRACERS_useGMRedi = /* apply GM-Redi */
(PID.TID 0000.0001)                   T
(PID.TID 0000.0001)     ;
(PID.TID 0000.0001) PTRACERS_useDWNSLP = /* apply DOWN-SLOPE Flow */
(PID.TID 0000.0001)                   F
(PID.TID 0000.0001)     ;
(PID.TID 0000.0001) PTRACERS_useKPP = /* apply KPP scheme */
(PID.TID 0000.0001)                   F
(PID.TID 0000.0001)     ;
(PID.TID 0000.0001) PTRACERS_ref = /* Reference vertical profile */
(PID.TID 0000.0001)    15 @  0.000000000000000E+00              /* K =  1: 15 */
(PID.TID 0000.0001)     ;
(PID.TID 0000.0001) PTRACERS_EvPrRn =/* tracer conc. in Evap. & Rain */
(PID.TID 0000.0001)                 1.234567000000000E+05
(PID.TID 0000.0001)     ;
(PID.TID 0000.0001)  -----------------------------------
(PID.TID 0000.0001)  tracer number :   61
(PID.TID 0000.0001) PTRACERS_names = /* Tracer short name */
(PID.TID 0000.0001)               'c44'
(PID.TID 0000.0001)     ;
(PID.TID 0000.0001) PTRACERS_long_names = /* Tracer long name */
(PID.TID 0000.0001)               ''
(PID.TID 0000.0001)     ;
(PID.TID 0000.0001) PTRACERS_ioLabel = /* tracer IO Label */
(PID.TID 0000.0001)               '61'
(PID.TID 0000.0001)     ;
(PID.TID 0000.0001) PTRACERS_advScheme = /* Advection Scheme */
(PID.TID 0000.0001)                      33
(PID.TID 0000.0001)     ;
(PID.TID 0000.0001) PTRACERS_SOM_Advection = /* tracer uses SOM advection scheme */
(PID.TID 0000.0001)                   F
(PID.TID 0000.0001)     ;
(PID.TID 0000.0001) PTRACERS_ImplVertAdv = /* implicit vert. advection flag */
(PID.TID 0000.0001)                   F
(PID.TID 0000.0001)     ;
(PID.TID 0000.0001) PTRACERS_diffKh = /* Laplacian Diffusivity */
(PID.TID 0000.0001)                 0.000000000000000E+00
(PID.TID 0000.0001)     ;
(PID.TID 0000.0001) PTRACERS_diffK4 = /* Biharmonic Diffusivity */
(PID.TID 0000.0001)                 0.000000000000000E+00
(PID.TID 0000.0001)     ;
(PID.TID 0000.0001) PTRACERS_diffKrNr = /* Vertical Diffusivity */
(PID.TID 0000.0001)    15 @  1.000000000000000E-05              /* K =  1: 15 */
(PID.TID 0000.0001)     ;
(PID.TID 0000.0001) PTRACERS_useGMRedi = /* apply GM-Redi */
(PID.TID 0000.0001)                   T
(PID.TID 0000.0001)     ;
(PID.TID 0000.0001) PTRACERS_useDWNSLP = /* apply DOWN-SLOPE Flow */
(PID.TID 0000.0001)                   F
(PID.TID 0000.0001)     ;
(PID.TID 0000.0001) PTRACERS_useKPP = /* apply KPP scheme */
(PID.TID 0000.0001)                   F
(PID.TID 0000.0001)     ;
(PID.TID 0000.0001) PTRACERS_ref = /* Reference vertical profile */
(PID.TID 0000.0001)    15 @  0.000000000000000E+00              /* K =  1: 15 */
(PID.TID 0000.0001)     ;
(PID.TID 0000.0001) PTRACERS_EvPrRn =/* tracer conc. in Evap. & Rain */
(PID.TID 0000.0001)                 1.234567000000000E+05
(PID.TID 0000.0001)     ;
(PID.TID 0000.0001)  -----------------------------------
(PID.TID 0000.0001)  tracer number :   62
(PID.TID 0000.0001) PTRACERS_names = /* Tracer short name */
(PID.TID 0000.0001)               'c45'
(PID.TID 0000.0001)     ;
(PID.TID 0000.0001) PTRACERS_long_names = /* Tracer long name */
(PID.TID 0000.0001)               ''
(PID.TID 0000.0001)     ;
(PID.TID 0000.0001) PTRACERS_ioLabel = /* tracer IO Label */
(PID.TID 0000.0001)               '62'
(PID.TID 0000.0001)     ;
(PID.TID 0000.0001) PTRACERS_advScheme = /* Advection Scheme */
(PID.TID 0000.0001)                      33
(PID.TID 0000.0001)     ;
(PID.TID 0000.0001) PTRACERS_SOM_Advection = /* tracer uses SOM advection scheme */
(PID.TID 0000.0001)                   F
(PID.TID 0000.0001)     ;
(PID.TID 0000.0001) PTRACERS_ImplVertAdv = /* implicit vert. advection flag */
(PID.TID 0000.0001)                   F
(PID.TID 0000.0001)     ;
(PID.TID 0000.0001) PTRACERS_diffKh = /* Laplacian Diffusivity */
(PID.TID 0000.0001)                 0.000000000000000E+00
(PID.TID 0000.0001)     ;
(PID.TID 0000.0001) PTRACERS_diffK4 = /* Biharmonic Diffusivity */
(PID.TID 0000.0001)                 0.000000000000000E+00
(PID.TID 0000.0001)     ;
(PID.TID 0000.0001) PTRACERS_diffKrNr = /* Vertical Diffusivity */
(PID.TID 0000.0001)    15 @  1.000000000000000E-05              /* K =  1: 15 */
(PID.TID 0000.0001)     ;
(PID.TID 0000.0001) PTRACERS_useGMRedi = /* apply GM-Redi */
(PID.TID 0000.0001)                   T
(PID.TID 0000.0001)     ;
(PID.TID 0000.0001) PTRACERS_useDWNSLP = /* apply DOWN-SLOPE Flow */
(PID.TID 0000.0001)                   F
(PID.TID 0000.0001)     ;
(PID.TID 0000.0001) PTRACERS_useKPP = /* apply KPP scheme */
(PID.TID 0000.0001)                   F
(PID.TID 0000.0001)     ;
(PID.TID 0000.0001) PTRACERS_ref = /* Reference vertical profile */
(PID.TID 0000.0001)    15 @  0.000000000000000E+00              /* K =  1: 15 */
(PID.TID 0000.0001)     ;
(PID.TID 0000.0001) PTRACERS_EvPrRn =/* tracer conc. in Evap. & Rain */
(PID.TID 0000.0001)                 1.234567000000000E+05
(PID.TID 0000.0001)     ;
(PID.TID 0000.0001)  -----------------------------------
(PID.TID 0000.0001)  tracer number :   63
(PID.TID 0000.0001) PTRACERS_names = /* Tracer short name */
(PID.TID 0000.0001)               'c46'
(PID.TID 0000.0001)     ;
(PID.TID 0000.0001) PTRACERS_long_names = /* Tracer long name */
(PID.TID 0000.0001)               ''
(PID.TID 0000.0001)     ;
(PID.TID 0000.0001) PTRACERS_ioLabel = /* tracer IO Label */
(PID.TID 0000.0001)               '63'
(PID.TID 0000.0001)     ;
(PID.TID 0000.0001) PTRACERS_advScheme = /* Advection Scheme */
(PID.TID 0000.0001)                      33
(PID.TID 0000.0001)     ;
(PID.TID 0000.0001) PTRACERS_SOM_Advection = /* tracer uses SOM advection scheme */
(PID.TID 0000.0001)                   F
(PID.TID 0000.0001)     ;
(PID.TID 0000.0001) PTRACERS_ImplVertAdv = /* implicit vert. advection flag */
(PID.TID 0000.0001)                   F
(PID.TID 0000.0001)     ;
(PID.TID 0000.0001) PTRACERS_diffKh = /* Laplacian Diffusivity */
(PID.TID 0000.0001)                 0.000000000000000E+00
(PID.TID 0000.0001)     ;
(PID.TID 0000.0001) PTRACERS_diffK4 = /* Biharmonic Diffusivity */
(PID.TID 0000.0001)                 0.000000000000000E+00
(PID.TID 0000.0001)     ;
(PID.TID 0000.0001) PTRACERS_diffKrNr = /* Vertical Diffusivity */
(PID.TID 0000.0001)    15 @  1.000000000000000E-05              /* K =  1: 15 */
(PID.TID 0000.0001)     ;
(PID.TID 0000.0001) PTRACERS_useGMRedi = /* apply GM-Redi */
(PID.TID 0000.0001)                   T
(PID.TID 0000.0001)     ;
(PID.TID 0000.0001) PTRACERS_useDWNSLP = /* apply DOWN-SLOPE Flow */
(PID.TID 0000.0001)                   F
(PID.TID 0000.0001)     ;
(PID.TID 0000.0001) PTRACERS_useKPP = /* apply KPP scheme */
(PID.TID 0000.0001)                   F
(PID.TID 0000.0001)     ;
(PID.TID 0000.0001) PTRACERS_ref = /* Reference vertical profile */
(PID.TID 0000.0001)    15 @  0.000000000000000E+00              /* K =  1: 15 */
(PID.TID 0000.0001)     ;
(PID.TID 0000.0001) PTRACERS_EvPrRn =/* tracer conc. in Evap. & Rain */
(PID.TID 0000.0001)                 1.234567000000000E+05
(PID.TID 0000.0001)     ;
(PID.TID 0000.0001)  -----------------------------------
(PID.TID 0000.0001)  tracer number :   64
(PID.TID 0000.0001) PTRACERS_names = /* Tracer short name */
(PID.TID 0000.0001)               'c47'
(PID.TID 0000.0001)     ;
(PID.TID 0000.0001) PTRACERS_long_names = /* Tracer long name */
(PID.TID 0000.0001)               ''
(PID.TID 0000.0001)     ;
(PID.TID 0000.0001) PTRACERS_ioLabel = /* tracer IO Label */
(PID.TID 0000.0001)               '64'
(PID.TID 0000.0001)     ;
(PID.TID 0000.0001) PTRACERS_advScheme = /* Advection Scheme */
(PID.TID 0000.0001)                      33
(PID.TID 0000.0001)     ;
(PID.TID 0000.0001) PTRACERS_SOM_Advection = /* tracer uses SOM advection scheme */
(PID.TID 0000.0001)                   F
(PID.TID 0000.0001)     ;
(PID.TID 0000.0001) PTRACERS_ImplVertAdv = /* implicit vert. advection flag */
(PID.TID 0000.0001)                   F
(PID.TID 0000.0001)     ;
(PID.TID 0000.0001) PTRACERS_diffKh = /* Laplacian Diffusivity */
(PID.TID 0000.0001)                 0.000000000000000E+00
(PID.TID 0000.0001)     ;
(PID.TID 0000.0001) PTRACERS_diffK4 = /* Biharmonic Diffusivity */
(PID.TID 0000.0001)                 0.000000000000000E+00
(PID.TID 0000.0001)     ;
(PID.TID 0000.0001) PTRACERS_diffKrNr = /* Vertical Diffusivity */
(PID.TID 0000.0001)    15 @  1.000000000000000E-05              /* K =  1: 15 */
(PID.TID 0000.0001)     ;
(PID.TID 0000.0001) PTRACERS_useGMRedi = /* apply GM-Redi */
(PID.TID 0000.0001)                   T
(PID.TID 0000.0001)     ;
(PID.TID 0000.0001) PTRACERS_useDWNSLP = /* apply DOWN-SLOPE Flow */
(PID.TID 0000.0001)                   F
(PID.TID 0000.0001)     ;
(PID.TID 0000.0001) PTRACERS_useKPP = /* apply KPP scheme */
(PID.TID 0000.0001)                   F
(PID.TID 0000.0001)     ;
(PID.TID 0000.0001) PTRACERS_ref = /* Reference vertical profile */
(PID.TID 0000.0001)    15 @  0.000000000000000E+00              /* K =  1: 15 */
(PID.TID 0000.0001)     ;
(PID.TID 0000.0001) PTRACERS_EvPrRn =/* tracer conc. in Evap. & Rain */
(PID.TID 0000.0001)                 1.234567000000000E+05
(PID.TID 0000.0001)     ;
(PID.TID 0000.0001)  -----------------------------------
(PID.TID 0000.0001)  tracer number :   65
(PID.TID 0000.0001) PTRACERS_names = /* Tracer short name */
(PID.TID 0000.0001)               'c48'
(PID.TID 0000.0001)     ;
(PID.TID 0000.0001) PTRACERS_long_names = /* Tracer long name */
(PID.TID 0000.0001)               ''
(PID.TID 0000.0001)     ;
(PID.TID 0000.0001) PTRACERS_ioLabel = /* tracer IO Label */
(PID.TID 0000.0001)               '65'
(PID.TID 0000.0001)     ;
(PID.TID 0000.0001) PTRACERS_advScheme = /* Advection Scheme */
(PID.TID 0000.0001)                      33
(PID.TID 0000.0001)     ;
(PID.TID 0000.0001) PTRACERS_SOM_Advection = /* tracer uses SOM advection scheme */
(PID.TID 0000.0001)                   F
(PID.TID 0000.0001)     ;
(PID.TID 0000.0001) PTRACERS_ImplVertAdv = /* implicit vert. advection flag */
(PID.TID 0000.0001)                   F
(PID.TID 0000.0001)     ;
(PID.TID 0000.0001) PTRACERS_diffKh = /* Laplacian Diffusivity */
(PID.TID 0000.0001)                 0.000000000000000E+00
(PID.TID 0000.0001)     ;
(PID.TID 0000.0001) PTRACERS_diffK4 = /* Biharmonic Diffusivity */
(PID.TID 0000.0001)                 0.000000000000000E+00
(PID.TID 0000.0001)     ;
(PID.TID 0000.0001) PTRACERS_diffKrNr = /* Vertical Diffusivity */
(PID.TID 0000.0001)    15 @  1.000000000000000E-05              /* K =  1: 15 */
(PID.TID 0000.0001)     ;
(PID.TID 0000.0001) PTRACERS_useGMRedi = /* apply GM-Redi */
(PID.TID 0000.0001)                   T
(PID.TID 0000.0001)     ;
(PID.TID 0000.0001) PTRACERS_useDWNSLP = /* apply DOWN-SLOPE Flow */
(PID.TID 0000.0001)                   F
(PID.TID 0000.0001)     ;
(PID.TID 0000.0001) PTRACERS_useKPP = /* apply KPP scheme */
(PID.TID 0000.0001)                   F
(PID.TID 0000.0001)     ;
(PID.TID 0000.0001) PTRACERS_ref = /* Reference vertical profile */
(PID.TID 0000.0001)    15 @  0.000000000000000E+00              /* K =  1: 15 */
(PID.TID 0000.0001)     ;
(PID.TID 0000.0001) PTRACERS_EvPrRn =/* tracer conc. in Evap. & Rain */
(PID.TID 0000.0001)                 1.234567000000000E+05
(PID.TID 0000.0001)     ;
(PID.TID 0000.0001)  -----------------------------------
(PID.TID 0000.0001)  tracer number :   66
(PID.TID 0000.0001) PTRACERS_names = /* Tracer short name */
(PID.TID 0000.0001)               'c49'
(PID.TID 0000.0001)     ;
(PID.TID 0000.0001) PTRACERS_long_names = /* Tracer long name */
(PID.TID 0000.0001)               ''
(PID.TID 0000.0001)     ;
(PID.TID 0000.0001) PTRACERS_ioLabel = /* tracer IO Label */
(PID.TID 0000.0001)               '66'
(PID.TID 0000.0001)     ;
(PID.TID 0000.0001) PTRACERS_advScheme = /* Advection Scheme */
(PID.TID 0000.0001)                      33
(PID.TID 0000.0001)     ;
(PID.TID 0000.0001) PTRACERS_SOM_Advection = /* tracer uses SOM advection scheme */
(PID.TID 0000.0001)                   F
(PID.TID 0000.0001)     ;
(PID.TID 0000.0001) PTRACERS_ImplVertAdv = /* implicit vert. advection flag */
(PID.TID 0000.0001)                   F
(PID.TID 0000.0001)     ;
(PID.TID 0000.0001) PTRACERS_diffKh = /* Laplacian Diffusivity */
(PID.TID 0000.0001)                 0.000000000000000E+00
(PID.TID 0000.0001)     ;
(PID.TID 0000.0001) PTRACERS_diffK4 = /* Biharmonic Diffusivity */
(PID.TID 0000.0001)                 0.000000000000000E+00
(PID.TID 0000.0001)     ;
(PID.TID 0000.0001) PTRACERS_diffKrNr = /* Vertical Diffusivity */
(PID.TID 0000.0001)    15 @  1.000000000000000E-05              /* K =  1: 15 */
(PID.TID 0000.0001)     ;
(PID.TID 0000.0001) PTRACERS_useGMRedi = /* apply GM-Redi */
(PID.TID 0000.0001)                   T
(PID.TID 0000.0001)     ;
(PID.TID 0000.0001) PTRACERS_useDWNSLP = /* apply DOWN-SLOPE Flow */
(PID.TID 0000.0001)                   F
(PID.TID 0000.0001)     ;
(PID.TID 0000.0001) PTRACERS_useKPP = /* apply KPP scheme */
(PID.TID 0000.0001)                   F
(PID.TID 0000.0001)     ;
(PID.TID 0000.0001) PTRACERS_ref = /* Reference vertical profile */
(PID.TID 0000.0001)    15 @  0.000000000000000E+00              /* K =  1: 15 */
(PID.TID 0000.0001)     ;
(PID.TID 0000.0001) PTRACERS_EvPrRn =/* tracer conc. in Evap. & Rain */
(PID.TID 0000.0001)                 1.234567000000000E+05
(PID.TID 0000.0001)     ;
(PID.TID 0000.0001)  -----------------------------------
(PID.TID 0000.0001)  tracer number :   67
(PID.TID 0000.0001) PTRACERS_names = /* Tracer short name */
(PID.TID 0000.0001)               'c50'
(PID.TID 0000.0001)     ;
(PID.TID 0000.0001) PTRACERS_long_names = /* Tracer long name */
(PID.TID 0000.0001)               ''
(PID.TID 0000.0001)     ;
(PID.TID 0000.0001) PTRACERS_ioLabel = /* tracer IO Label */
(PID.TID 0000.0001)               '67'
(PID.TID 0000.0001)     ;
(PID.TID 0000.0001) PTRACERS_advScheme = /* Advection Scheme */
(PID.TID 0000.0001)                      33
(PID.TID 0000.0001)     ;
(PID.TID 0000.0001) PTRACERS_SOM_Advection = /* tracer uses SOM advection scheme */
(PID.TID 0000.0001)                   F
(PID.TID 0000.0001)     ;
(PID.TID 0000.0001) PTRACERS_ImplVertAdv = /* implicit vert. advection flag */
(PID.TID 0000.0001)                   F
(PID.TID 0000.0001)     ;
(PID.TID 0000.0001) PTRACERS_diffKh = /* Laplacian Diffusivity */
(PID.TID 0000.0001)                 0.000000000000000E+00
(PID.TID 0000.0001)     ;
(PID.TID 0000.0001) PTRACERS_diffK4 = /* Biharmonic Diffusivity */
(PID.TID 0000.0001)                 0.000000000000000E+00
(PID.TID 0000.0001)     ;
(PID.TID 0000.0001) PTRACERS_diffKrNr = /* Vertical Diffusivity */
(PID.TID 0000.0001)    15 @  1.000000000000000E-05              /* K =  1: 15 */
(PID.TID 0000.0001)     ;
(PID.TID 0000.0001) PTRACERS_useGMRedi = /* apply GM-Redi */
(PID.TID 0000.0001)                   T
(PID.TID 0000.0001)     ;
(PID.TID 0000.0001) PTRACERS_useDWNSLP = /* apply DOWN-SLOPE Flow */
(PID.TID 0000.0001)                   F
(PID.TID 0000.0001)     ;
(PID.TID 0000.0001) PTRACERS_useKPP = /* apply KPP scheme */
(PID.TID 0000.0001)                   F
(PID.TID 0000.0001)     ;
(PID.TID 0000.0001) PTRACERS_ref = /* Reference vertical profile */
(PID.TID 0000.0001)    15 @  0.000000000000000E+00              /* K =  1: 15 */
(PID.TID 0000.0001)     ;
(PID.TID 0000.0001) PTRACERS_EvPrRn =/* tracer conc. in Evap. & Rain */
(PID.TID 0000.0001)                 1.234567000000000E+05
(PID.TID 0000.0001)     ;
(PID.TID 0000.0001)  -----------------------------------
(PID.TID 0000.0001)  tracer number :   68
(PID.TID 0000.0001) PTRACERS_names = /* Tracer short name */
(PID.TID 0000.0001)               'c51'
(PID.TID 0000.0001)     ;
(PID.TID 0000.0001) PTRACERS_long_names = /* Tracer long name */
(PID.TID 0000.0001)               ''
(PID.TID 0000.0001)     ;
(PID.TID 0000.0001) PTRACERS_ioLabel = /* tracer IO Label */
(PID.TID 0000.0001)               '68'
(PID.TID 0000.0001)     ;
(PID.TID 0000.0001) PTRACERS_advScheme = /* Advection Scheme */
(PID.TID 0000.0001)                      33
(PID.TID 0000.0001)     ;
(PID.TID 0000.0001) PTRACERS_SOM_Advection = /* tracer uses SOM advection scheme */
(PID.TID 0000.0001)                   F
(PID.TID 0000.0001)     ;
(PID.TID 0000.0001) PTRACERS_ImplVertAdv = /* implicit vert. advection flag */
(PID.TID 0000.0001)                   F
(PID.TID 0000.0001)     ;
(PID.TID 0000.0001) PTRACERS_diffKh = /* Laplacian Diffusivity */
(PID.TID 0000.0001)                 0.000000000000000E+00
(PID.TID 0000.0001)     ;
(PID.TID 0000.0001) PTRACERS_diffK4 = /* Biharmonic Diffusivity */
(PID.TID 0000.0001)                 0.000000000000000E+00
(PID.TID 0000.0001)     ;
(PID.TID 0000.0001) PTRACERS_diffKrNr = /* Vertical Diffusivity */
(PID.TID 0000.0001)    15 @  1.000000000000000E-05              /* K =  1: 15 */
(PID.TID 0000.0001)     ;
(PID.TID 0000.0001) PTRACERS_useGMRedi = /* apply GM-Redi */
(PID.TID 0000.0001)                   T
(PID.TID 0000.0001)     ;
(PID.TID 0000.0001) PTRACERS_useDWNSLP = /* apply DOWN-SLOPE Flow */
(PID.TID 0000.0001)                   F
(PID.TID 0000.0001)     ;
(PID.TID 0000.0001) PTRACERS_useKPP = /* apply KPP scheme */
(PID.TID 0000.0001)                   F
(PID.TID 0000.0001)     ;
(PID.TID 0000.0001) PTRACERS_ref = /* Reference vertical profile */
(PID.TID 0000.0001)    15 @  0.000000000000000E+00              /* K =  1: 15 */
(PID.TID 0000.0001)     ;
(PID.TID 0000.0001) PTRACERS_EvPrRn =/* tracer conc. in Evap. & Rain */
(PID.TID 0000.0001)                 1.234567000000000E+05
(PID.TID 0000.0001)     ;
(PID.TID 0000.0001)  -----------------------------------
(PID.TID 0000.0001)  tracer number :   69
(PID.TID 0000.0001) PTRACERS_names = /* Tracer short name */
(PID.TID 0000.0001)               'c52'
(PID.TID 0000.0001)     ;
(PID.TID 0000.0001) PTRACERS_long_names = /* Tracer long name */
(PID.TID 0000.0001)               ''
(PID.TID 0000.0001)     ;
(PID.TID 0000.0001) PTRACERS_ioLabel = /* tracer IO Label */
(PID.TID 0000.0001)               '69'
(PID.TID 0000.0001)     ;
(PID.TID 0000.0001) PTRACERS_advScheme = /* Advection Scheme */
(PID.TID 0000.0001)                      33
(PID.TID 0000.0001)     ;
(PID.TID 0000.0001) PTRACERS_SOM_Advection = /* tracer uses SOM advection scheme */
(PID.TID 0000.0001)                   F
(PID.TID 0000.0001)     ;
(PID.TID 0000.0001) PTRACERS_ImplVertAdv = /* implicit vert. advection flag */
(PID.TID 0000.0001)                   F
(PID.TID 0000.0001)     ;
(PID.TID 0000.0001) PTRACERS_diffKh = /* Laplacian Diffusivity */
(PID.TID 0000.0001)                 0.000000000000000E+00
(PID.TID 0000.0001)     ;
(PID.TID 0000.0001) PTRACERS_diffK4 = /* Biharmonic Diffusivity */
(PID.TID 0000.0001)                 0.000000000000000E+00
(PID.TID 0000.0001)     ;
(PID.TID 0000.0001) PTRACERS_diffKrNr = /* Vertical Diffusivity */
(PID.TID 0000.0001)    15 @  1.000000000000000E-05              /* K =  1: 15 */
(PID.TID 0000.0001)     ;
(PID.TID 0000.0001) PTRACERS_useGMRedi = /* apply GM-Redi */
(PID.TID 0000.0001)                   T
(PID.TID 0000.0001)     ;
(PID.TID 0000.0001) PTRACERS_useDWNSLP = /* apply DOWN-SLOPE Flow */
(PID.TID 0000.0001)                   F
(PID.TID 0000.0001)     ;
(PID.TID 0000.0001) PTRACERS_useKPP = /* apply KPP scheme */
(PID.TID 0000.0001)                   F
(PID.TID 0000.0001)     ;
(PID.TID 0000.0001) PTRACERS_ref = /* Reference vertical profile */
(PID.TID 0000.0001)    15 @  0.000000000000000E+00              /* K =  1: 15 */
(PID.TID 0000.0001)     ;
(PID.TID 0000.0001) PTRACERS_EvPrRn =/* tracer conc. in Evap. & Rain */
(PID.TID 0000.0001)                 1.234567000000000E+05
(PID.TID 0000.0001)     ;
(PID.TID 0000.0001)  -----------------------------------
(PID.TID 0000.0001)  tracer number :   70
(PID.TID 0000.0001) PTRACERS_names = /* Tracer short name */
(PID.TID 0000.0001)               'c53'
(PID.TID 0000.0001)     ;
(PID.TID 0000.0001) PTRACERS_long_names = /* Tracer long name */
(PID.TID 0000.0001)               ''
(PID.TID 0000.0001)     ;
(PID.TID 0000.0001) PTRACERS_ioLabel = /* tracer IO Label */
(PID.TID 0000.0001)               '70'
(PID.TID 0000.0001)     ;
(PID.TID 0000.0001) PTRACERS_advScheme = /* Advection Scheme */
(PID.TID 0000.0001)                      33
(PID.TID 0000.0001)     ;
(PID.TID 0000.0001) PTRACERS_SOM_Advection = /* tracer uses SOM advection scheme */
(PID.TID 0000.0001)                   F
(PID.TID 0000.0001)     ;
(PID.TID 0000.0001) PTRACERS_ImplVertAdv = /* implicit vert. advection flag */
(PID.TID 0000.0001)                   F
(PID.TID 0000.0001)     ;
(PID.TID 0000.0001) PTRACERS_diffKh = /* Laplacian Diffusivity */
(PID.TID 0000.0001)                 0.000000000000000E+00
(PID.TID 0000.0001)     ;
(PID.TID 0000.0001) PTRACERS_diffK4 = /* Biharmonic Diffusivity */
(PID.TID 0000.0001)                 0.000000000000000E+00
(PID.TID 0000.0001)     ;
(PID.TID 0000.0001) PTRACERS_diffKrNr = /* Vertical Diffusivity */
(PID.TID 0000.0001)    15 @  1.000000000000000E-05              /* K =  1: 15 */
(PID.TID 0000.0001)     ;
(PID.TID 0000.0001) PTRACERS_useGMRedi = /* apply GM-Redi */
(PID.TID 0000.0001)                   T
(PID.TID 0000.0001)     ;
(PID.TID 0000.0001) PTRACERS_useDWNSLP = /* apply DOWN-SLOPE Flow */
(PID.TID 0000.0001)                   F
(PID.TID 0000.0001)     ;
(PID.TID 0000.0001) PTRACERS_useKPP = /* apply KPP scheme */
(PID.TID 0000.0001)                   F
(PID.TID 0000.0001)     ;
(PID.TID 0000.0001) PTRACERS_ref = /* Reference vertical profile */
(PID.TID 0000.0001)    15 @  0.000000000000000E+00              /* K =  1: 15 */
(PID.TID 0000.0001)     ;
(PID.TID 0000.0001) PTRACERS_EvPrRn =/* tracer conc. in Evap. & Rain */
(PID.TID 0000.0001)                 1.234567000000000E+05
(PID.TID 0000.0001)     ;
(PID.TID 0000.0001)  -----------------------------------
(PID.TID 0000.0001)  tracer number :   71
(PID.TID 0000.0001) PTRACERS_names = /* Tracer short name */
(PID.TID 0000.0001)               'c54'
(PID.TID 0000.0001)     ;
(PID.TID 0000.0001) PTRACERS_long_names = /* Tracer long name */
(PID.TID 0000.0001)               ''
(PID.TID 0000.0001)     ;
(PID.TID 0000.0001) PTRACERS_ioLabel = /* tracer IO Label */
(PID.TID 0000.0001)               '71'
(PID.TID 0000.0001)     ;
(PID.TID 0000.0001) PTRACERS_advScheme = /* Advection Scheme */
(PID.TID 0000.0001)                      33
(PID.TID 0000.0001)     ;
(PID.TID 0000.0001) PTRACERS_SOM_Advection = /* tracer uses SOM advection scheme */
(PID.TID 0000.0001)                   F
(PID.TID 0000.0001)     ;
(PID.TID 0000.0001) PTRACERS_ImplVertAdv = /* implicit vert. advection flag */
(PID.TID 0000.0001)                   F
(PID.TID 0000.0001)     ;
(PID.TID 0000.0001) PTRACERS_diffKh = /* Laplacian Diffusivity */
(PID.TID 0000.0001)                 0.000000000000000E+00
(PID.TID 0000.0001)     ;
(PID.TID 0000.0001) PTRACERS_diffK4 = /* Biharmonic Diffusivity */
(PID.TID 0000.0001)                 0.000000000000000E+00
(PID.TID 0000.0001)     ;
(PID.TID 0000.0001) PTRACERS_diffKrNr = /* Vertical Diffusivity */
(PID.TID 0000.0001)    15 @  1.000000000000000E-05              /* K =  1: 15 */
(PID.TID 0000.0001)     ;
(PID.TID 0000.0001) PTRACERS_useGMRedi = /* apply GM-Redi */
(PID.TID 0000.0001)                   T
(PID.TID 0000.0001)     ;
(PID.TID 0000.0001) PTRACERS_useDWNSLP = /* apply DOWN-SLOPE Flow */
(PID.TID 0000.0001)                   F
(PID.TID 0000.0001)     ;
(PID.TID 0000.0001) PTRACERS_useKPP = /* apply KPP scheme */
(PID.TID 0000.0001)                   F
(PID.TID 0000.0001)     ;
(PID.TID 0000.0001) PTRACERS_ref = /* Reference vertical profile */
(PID.TID 0000.0001)    15 @  0.000000000000000E+00              /* K =  1: 15 */
(PID.TID 0000.0001)     ;
(PID.TID 0000.0001) PTRACERS_EvPrRn =/* tracer conc. in Evap. & Rain */
(PID.TID 0000.0001)                 1.234567000000000E+05
(PID.TID 0000.0001)     ;
(PID.TID 0000.0001)  -----------------------------------
(PID.TID 0000.0001)  tracer number :   72
(PID.TID 0000.0001) PTRACERS_names = /* Tracer short name */
(PID.TID 0000.0001)               'c55'
(PID.TID 0000.0001)     ;
(PID.TID 0000.0001) PTRACERS_long_names = /* Tracer long name */
(PID.TID 0000.0001)               ''
(PID.TID 0000.0001)     ;
(PID.TID 0000.0001) PTRACERS_ioLabel = /* tracer IO Label */
(PID.TID 0000.0001)               '72'
(PID.TID 0000.0001)     ;
(PID.TID 0000.0001) PTRACERS_advScheme = /* Advection Scheme */
(PID.TID 0000.0001)                      33
(PID.TID 0000.0001)     ;
(PID.TID 0000.0001) PTRACERS_SOM_Advection = /* tracer uses SOM advection scheme */
(PID.TID 0000.0001)                   F
(PID.TID 0000.0001)     ;
(PID.TID 0000.0001) PTRACERS_ImplVertAdv = /* implicit vert. advection flag */
(PID.TID 0000.0001)                   F
(PID.TID 0000.0001)     ;
(PID.TID 0000.0001) PTRACERS_diffKh = /* Laplacian Diffusivity */
(PID.TID 0000.0001)                 0.000000000000000E+00
(PID.TID 0000.0001)     ;
(PID.TID 0000.0001) PTRACERS_diffK4 = /* Biharmonic Diffusivity */
(PID.TID 0000.0001)                 0.000000000000000E+00
(PID.TID 0000.0001)     ;
(PID.TID 0000.0001) PTRACERS_diffKrNr = /* Vertical Diffusivity */
(PID.TID 0000.0001)    15 @  1.000000000000000E-05              /* K =  1: 15 */
(PID.TID 0000.0001)     ;
(PID.TID 0000.0001) PTRACERS_useGMRedi = /* apply GM-Redi */
(PID.TID 0000.0001)                   T
(PID.TID 0000.0001)     ;
(PID.TID 0000.0001) PTRACERS_useDWNSLP = /* apply DOWN-SLOPE Flow */
(PID.TID 0000.0001)                   F
(PID.TID 0000.0001)     ;
(PID.TID 0000.0001) PTRACERS_useKPP = /* apply KPP scheme */
(PID.TID 0000.0001)                   F
(PID.TID 0000.0001)     ;
(PID.TID 0000.0001) PTRACERS_ref = /* Reference vertical profile */
(PID.TID 0000.0001)    15 @  0.000000000000000E+00              /* K =  1: 15 */
(PID.TID 0000.0001)     ;
(PID.TID 0000.0001) PTRACERS_EvPrRn =/* tracer conc. in Evap. & Rain */
(PID.TID 0000.0001)                 1.234567000000000E+05
(PID.TID 0000.0001)     ;
(PID.TID 0000.0001)  -----------------------------------
(PID.TID 0000.0001)  tracer number :   73
(PID.TID 0000.0001) PTRACERS_names = /* Tracer short name */
(PID.TID 0000.0001)               'n01'
(PID.TID 0000.0001)     ;
(PID.TID 0000.0001) PTRACERS_long_names = /* Tracer long name */
(PID.TID 0000.0001)               ''
(PID.TID 0000.0001)     ;
(PID.TID 0000.0001) PTRACERS_ioLabel = /* tracer IO Label */
(PID.TID 0000.0001)               '73'
(PID.TID 0000.0001)     ;
(PID.TID 0000.0001) PTRACERS_advScheme = /* Advection Scheme */
(PID.TID 0000.0001)                      33
(PID.TID 0000.0001)     ;
(PID.TID 0000.0001) PTRACERS_SOM_Advection = /* tracer uses SOM advection scheme */
(PID.TID 0000.0001)                   F
(PID.TID 0000.0001)     ;
(PID.TID 0000.0001) PTRACERS_ImplVertAdv = /* implicit vert. advection flag */
(PID.TID 0000.0001)                   F
(PID.TID 0000.0001)     ;
(PID.TID 0000.0001) PTRACERS_diffKh = /* Laplacian Diffusivity */
(PID.TID 0000.0001)                 0.000000000000000E+00
(PID.TID 0000.0001)     ;
(PID.TID 0000.0001) PTRACERS_diffK4 = /* Biharmonic Diffusivity */
(PID.TID 0000.0001)                 0.000000000000000E+00
(PID.TID 0000.0001)     ;
(PID.TID 0000.0001) PTRACERS_diffKrNr = /* Vertical Diffusivity */
(PID.TID 0000.0001)    15 @  1.000000000000000E-05              /* K =  1: 15 */
(PID.TID 0000.0001)     ;
(PID.TID 0000.0001) PTRACERS_useGMRedi = /* apply GM-Redi */
(PID.TID 0000.0001)                   T
(PID.TID 0000.0001)     ;
(PID.TID 0000.0001) PTRACERS_useDWNSLP = /* apply DOWN-SLOPE Flow */
(PID.TID 0000.0001)                   F
(PID.TID 0000.0001)     ;
(PID.TID 0000.0001) PTRACERS_useKPP = /* apply KPP scheme */
(PID.TID 0000.0001)                   F
(PID.TID 0000.0001)     ;
(PID.TID 0000.0001) PTRACERS_ref = /* Reference vertical profile */
(PID.TID 0000.0001)    15 @  0.000000000000000E+00              /* K =  1: 15 */
(PID.TID 0000.0001)     ;
(PID.TID 0000.0001) PTRACERS_EvPrRn =/* tracer conc. in Evap. & Rain */
(PID.TID 0000.0001)                 1.234567000000000E+05
(PID.TID 0000.0001)     ;
(PID.TID 0000.0001)  -----------------------------------
(PID.TID 0000.0001)  tracer number :   74
(PID.TID 0000.0001) PTRACERS_names = /* Tracer short name */
(PID.TID 0000.0001)               'n02'
(PID.TID 0000.0001)     ;
(PID.TID 0000.0001) PTRACERS_long_names = /* Tracer long name */
(PID.TID 0000.0001)               ''
(PID.TID 0000.0001)     ;
(PID.TID 0000.0001) PTRACERS_ioLabel = /* tracer IO Label */
(PID.TID 0000.0001)               '74'
(PID.TID 0000.0001)     ;
(PID.TID 0000.0001) PTRACERS_advScheme = /* Advection Scheme */
(PID.TID 0000.0001)                      33
(PID.TID 0000.0001)     ;
(PID.TID 0000.0001) PTRACERS_SOM_Advection = /* tracer uses SOM advection scheme */
(PID.TID 0000.0001)                   F
(PID.TID 0000.0001)     ;
(PID.TID 0000.0001) PTRACERS_ImplVertAdv = /* implicit vert. advection flag */
(PID.TID 0000.0001)                   F
(PID.TID 0000.0001)     ;
(PID.TID 0000.0001) PTRACERS_diffKh = /* Laplacian Diffusivity */
(PID.TID 0000.0001)                 0.000000000000000E+00
(PID.TID 0000.0001)     ;
(PID.TID 0000.0001) PTRACERS_diffK4 = /* Biharmonic Diffusivity */
(PID.TID 0000.0001)                 0.000000000000000E+00
(PID.TID 0000.0001)     ;
(PID.TID 0000.0001) PTRACERS_diffKrNr = /* Vertical Diffusivity */
(PID.TID 0000.0001)    15 @  1.000000000000000E-05              /* K =  1: 15 */
(PID.TID 0000.0001)     ;
(PID.TID 0000.0001) PTRACERS_useGMRedi = /* apply GM-Redi */
(PID.TID 0000.0001)                   T
(PID.TID 0000.0001)     ;
(PID.TID 0000.0001) PTRACERS_useDWNSLP = /* apply DOWN-SLOPE Flow */
(PID.TID 0000.0001)                   F
(PID.TID 0000.0001)     ;
(PID.TID 0000.0001) PTRACERS_useKPP = /* apply KPP scheme */
(PID.TID 0000.0001)                   F
(PID.TID 0000.0001)     ;
(PID.TID 0000.0001) PTRACERS_ref = /* Reference vertical profile */
(PID.TID 0000.0001)    15 @  0.000000000000000E+00              /* K =  1: 15 */
(PID.TID 0000.0001)     ;
(PID.TID 0000.0001) PTRACERS_EvPrRn =/* tracer conc. in Evap. & Rain */
(PID.TID 0000.0001)                 1.234567000000000E+05
(PID.TID 0000.0001)     ;
(PID.TID 0000.0001)  -----------------------------------
(PID.TID 0000.0001)  tracer number :   75
(PID.TID 0000.0001) PTRACERS_names = /* Tracer short name */
(PID.TID 0000.0001)               'n03'
(PID.TID 0000.0001)     ;
(PID.TID 0000.0001) PTRACERS_long_names = /* Tracer long name */
(PID.TID 0000.0001)               ''
(PID.TID 0000.0001)     ;
(PID.TID 0000.0001) PTRACERS_ioLabel = /* tracer IO Label */
(PID.TID 0000.0001)               '75'
(PID.TID 0000.0001)     ;
(PID.TID 0000.0001) PTRACERS_advScheme = /* Advection Scheme */
(PID.TID 0000.0001)                      33
(PID.TID 0000.0001)     ;
(PID.TID 0000.0001) PTRACERS_SOM_Advection = /* tracer uses SOM advection scheme */
(PID.TID 0000.0001)                   F
(PID.TID 0000.0001)     ;
(PID.TID 0000.0001) PTRACERS_ImplVertAdv = /* implicit vert. advection flag */
(PID.TID 0000.0001)                   F
(PID.TID 0000.0001)     ;
(PID.TID 0000.0001) PTRACERS_diffKh = /* Laplacian Diffusivity */
(PID.TID 0000.0001)                 0.000000000000000E+00
(PID.TID 0000.0001)     ;
(PID.TID 0000.0001) PTRACERS_diffK4 = /* Biharmonic Diffusivity */
(PID.TID 0000.0001)                 0.000000000000000E+00
(PID.TID 0000.0001)     ;
(PID.TID 0000.0001) PTRACERS_diffKrNr = /* Vertical Diffusivity */
(PID.TID 0000.0001)    15 @  1.000000000000000E-05              /* K =  1: 15 */
(PID.TID 0000.0001)     ;
(PID.TID 0000.0001) PTRACERS_useGMRedi = /* apply GM-Redi */
(PID.TID 0000.0001)                   T
(PID.TID 0000.0001)     ;
(PID.TID 0000.0001) PTRACERS_useDWNSLP = /* apply DOWN-SLOPE Flow */
(PID.TID 0000.0001)                   F
(PID.TID 0000.0001)     ;
(PID.TID 0000.0001) PTRACERS_useKPP = /* apply KPP scheme */
(PID.TID 0000.0001)                   F
(PID.TID 0000.0001)     ;
(PID.TID 0000.0001) PTRACERS_ref = /* Reference vertical profile */
(PID.TID 0000.0001)    15 @  0.000000000000000E+00              /* K =  1: 15 */
(PID.TID 0000.0001)     ;
(PID.TID 0000.0001) PTRACERS_EvPrRn =/* tracer conc. in Evap. & Rain */
(PID.TID 0000.0001)                 1.234567000000000E+05
(PID.TID 0000.0001)     ;
(PID.TID 0000.0001)  -----------------------------------
(PID.TID 0000.0001)  tracer number :   76
(PID.TID 0000.0001) PTRACERS_names = /* Tracer short name */
(PID.TID 0000.0001)               'n04'
(PID.TID 0000.0001)     ;
(PID.TID 0000.0001) PTRACERS_long_names = /* Tracer long name */
(PID.TID 0000.0001)               ''
(PID.TID 0000.0001)     ;
(PID.TID 0000.0001) PTRACERS_ioLabel = /* tracer IO Label */
(PID.TID 0000.0001)               '76'
(PID.TID 0000.0001)     ;
(PID.TID 0000.0001) PTRACERS_advScheme = /* Advection Scheme */
(PID.TID 0000.0001)                      33
(PID.TID 0000.0001)     ;
(PID.TID 0000.0001) PTRACERS_SOM_Advection = /* tracer uses SOM advection scheme */
(PID.TID 0000.0001)                   F
(PID.TID 0000.0001)     ;
(PID.TID 0000.0001) PTRACERS_ImplVertAdv = /* implicit vert. advection flag */
(PID.TID 0000.0001)                   F
(PID.TID 0000.0001)     ;
(PID.TID 0000.0001) PTRACERS_diffKh = /* Laplacian Diffusivity */
(PID.TID 0000.0001)                 0.000000000000000E+00
(PID.TID 0000.0001)     ;
(PID.TID 0000.0001) PTRACERS_diffK4 = /* Biharmonic Diffusivity */
(PID.TID 0000.0001)                 0.000000000000000E+00
(PID.TID 0000.0001)     ;
(PID.TID 0000.0001) PTRACERS_diffKrNr = /* Vertical Diffusivity */
(PID.TID 0000.0001)    15 @  1.000000000000000E-05              /* K =  1: 15 */
(PID.TID 0000.0001)     ;
(PID.TID 0000.0001) PTRACERS_useGMRedi = /* apply GM-Redi */
(PID.TID 0000.0001)                   T
(PID.TID 0000.0001)     ;
(PID.TID 0000.0001) PTRACERS_useDWNSLP = /* apply DOWN-SLOPE Flow */
(PID.TID 0000.0001)                   F
(PID.TID 0000.0001)     ;
(PID.TID 0000.0001) PTRACERS_useKPP = /* apply KPP scheme */
(PID.TID 0000.0001)                   F
(PID.TID 0000.0001)     ;
(PID.TID 0000.0001) PTRACERS_ref = /* Reference vertical profile */
(PID.TID 0000.0001)    15 @  0.000000000000000E+00              /* K =  1: 15 */
(PID.TID 0000.0001)     ;
(PID.TID 0000.0001) PTRACERS_EvPrRn =/* tracer conc. in Evap. & Rain */
(PID.TID 0000.0001)                 1.234567000000000E+05
(PID.TID 0000.0001)     ;
(PID.TID 0000.0001)  -----------------------------------
(PID.TID 0000.0001)  tracer number :   77
(PID.TID 0000.0001) PTRACERS_names = /* Tracer short name */
(PID.TID 0000.0001)               'n05'
(PID.TID 0000.0001)     ;
(PID.TID 0000.0001) PTRACERS_long_names = /* Tracer long name */
(PID.TID 0000.0001)               ''
(PID.TID 0000.0001)     ;
(PID.TID 0000.0001) PTRACERS_ioLabel = /* tracer IO Label */
(PID.TID 0000.0001)               '77'
(PID.TID 0000.0001)     ;
(PID.TID 0000.0001) PTRACERS_advScheme = /* Advection Scheme */
(PID.TID 0000.0001)                      33
(PID.TID 0000.0001)     ;
(PID.TID 0000.0001) PTRACERS_SOM_Advection = /* tracer uses SOM advection scheme */
(PID.TID 0000.0001)                   F
(PID.TID 0000.0001)     ;
(PID.TID 0000.0001) PTRACERS_ImplVertAdv = /* implicit vert. advection flag */
(PID.TID 0000.0001)                   F
(PID.TID 0000.0001)     ;
(PID.TID 0000.0001) PTRACERS_diffKh = /* Laplacian Diffusivity */
(PID.TID 0000.0001)                 0.000000000000000E+00
(PID.TID 0000.0001)     ;
(PID.TID 0000.0001) PTRACERS_diffK4 = /* Biharmonic Diffusivity */
(PID.TID 0000.0001)                 0.000000000000000E+00
(PID.TID 0000.0001)     ;
(PID.TID 0000.0001) PTRACERS_diffKrNr = /* Vertical Diffusivity */
(PID.TID 0000.0001)    15 @  1.000000000000000E-05              /* K =  1: 15 */
(PID.TID 0000.0001)     ;
(PID.TID 0000.0001) PTRACERS_useGMRedi = /* apply GM-Redi */
(PID.TID 0000.0001)                   T
(PID.TID 0000.0001)     ;
(PID.TID 0000.0001) PTRACERS_useDWNSLP = /* apply DOWN-SLOPE Flow */
(PID.TID 0000.0001)                   F
(PID.TID 0000.0001)     ;
(PID.TID 0000.0001) PTRACERS_useKPP = /* apply KPP scheme */
(PID.TID 0000.0001)                   F
(PID.TID 0000.0001)     ;
(PID.TID 0000.0001) PTRACERS_ref = /* Reference vertical profile */
(PID.TID 0000.0001)    15 @  0.000000000000000E+00              /* K =  1: 15 */
(PID.TID 0000.0001)     ;
(PID.TID 0000.0001) PTRACERS_EvPrRn =/* tracer conc. in Evap. & Rain */
(PID.TID 0000.0001)                 1.234567000000000E+05
(PID.TID 0000.0001)     ;
(PID.TID 0000.0001)  -----------------------------------
(PID.TID 0000.0001)  tracer number :   78
(PID.TID 0000.0001) PTRACERS_names = /* Tracer short name */
(PID.TID 0000.0001)               'n06'
(PID.TID 0000.0001)     ;
(PID.TID 0000.0001) PTRACERS_long_names = /* Tracer long name */
(PID.TID 0000.0001)               ''
(PID.TID 0000.0001)     ;
(PID.TID 0000.0001) PTRACERS_ioLabel = /* tracer IO Label */
(PID.TID 0000.0001)               '78'
(PID.TID 0000.0001)     ;
(PID.TID 0000.0001) PTRACERS_advScheme = /* Advection Scheme */
(PID.TID 0000.0001)                      33
(PID.TID 0000.0001)     ;
(PID.TID 0000.0001) PTRACERS_SOM_Advection = /* tracer uses SOM advection scheme */
(PID.TID 0000.0001)                   F
(PID.TID 0000.0001)     ;
(PID.TID 0000.0001) PTRACERS_ImplVertAdv = /* implicit vert. advection flag */
(PID.TID 0000.0001)                   F
(PID.TID 0000.0001)     ;
(PID.TID 0000.0001) PTRACERS_diffKh = /* Laplacian Diffusivity */
(PID.TID 0000.0001)                 0.000000000000000E+00
(PID.TID 0000.0001)     ;
(PID.TID 0000.0001) PTRACERS_diffK4 = /* Biharmonic Diffusivity */
(PID.TID 0000.0001)                 0.000000000000000E+00
(PID.TID 0000.0001)     ;
(PID.TID 0000.0001) PTRACERS_diffKrNr = /* Vertical Diffusivity */
(PID.TID 0000.0001)    15 @  1.000000000000000E-05              /* K =  1: 15 */
(PID.TID 0000.0001)     ;
(PID.TID 0000.0001) PTRACERS_useGMRedi = /* apply GM-Redi */
(PID.TID 0000.0001)                   T
(PID.TID 0000.0001)     ;
(PID.TID 0000.0001) PTRACERS_useDWNSLP = /* apply DOWN-SLOPE Flow */
(PID.TID 0000.0001)                   F
(PID.TID 0000.0001)     ;
(PID.TID 0000.0001) PTRACERS_useKPP = /* apply KPP scheme */
(PID.TID 0000.0001)                   F
(PID.TID 0000.0001)     ;
(PID.TID 0000.0001) PTRACERS_ref = /* Reference vertical profile */
(PID.TID 0000.0001)    15 @  0.000000000000000E+00              /* K =  1: 15 */
(PID.TID 0000.0001)     ;
(PID.TID 0000.0001) PTRACERS_EvPrRn =/* tracer conc. in Evap. & Rain */
(PID.TID 0000.0001)                 1.234567000000000E+05
(PID.TID 0000.0001)     ;
(PID.TID 0000.0001)  -----------------------------------
(PID.TID 0000.0001)  tracer number :   79
(PID.TID 0000.0001) PTRACERS_names = /* Tracer short name */
(PID.TID 0000.0001)               'n07'
(PID.TID 0000.0001)     ;
(PID.TID 0000.0001) PTRACERS_long_names = /* Tracer long name */
(PID.TID 0000.0001)               ''
(PID.TID 0000.0001)     ;
(PID.TID 0000.0001) PTRACERS_ioLabel = /* tracer IO Label */
(PID.TID 0000.0001)               '79'
(PID.TID 0000.0001)     ;
(PID.TID 0000.0001) PTRACERS_advScheme = /* Advection Scheme */
(PID.TID 0000.0001)                      33
(PID.TID 0000.0001)     ;
(PID.TID 0000.0001) PTRACERS_SOM_Advection = /* tracer uses SOM advection scheme */
(PID.TID 0000.0001)                   F
(PID.TID 0000.0001)     ;
(PID.TID 0000.0001) PTRACERS_ImplVertAdv = /* implicit vert. advection flag */
(PID.TID 0000.0001)                   F
(PID.TID 0000.0001)     ;
(PID.TID 0000.0001) PTRACERS_diffKh = /* Laplacian Diffusivity */
(PID.TID 0000.0001)                 0.000000000000000E+00
(PID.TID 0000.0001)     ;
(PID.TID 0000.0001) PTRACERS_diffK4 = /* Biharmonic Diffusivity */
(PID.TID 0000.0001)                 0.000000000000000E+00
(PID.TID 0000.0001)     ;
(PID.TID 0000.0001) PTRACERS_diffKrNr = /* Vertical Diffusivity */
(PID.TID 0000.0001)    15 @  1.000000000000000E-05              /* K =  1: 15 */
(PID.TID 0000.0001)     ;
(PID.TID 0000.0001) PTRACERS_useGMRedi = /* apply GM-Redi */
(PID.TID 0000.0001)                   T
(PID.TID 0000.0001)     ;
(PID.TID 0000.0001) PTRACERS_useDWNSLP = /* apply DOWN-SLOPE Flow */
(PID.TID 0000.0001)                   F
(PID.TID 0000.0001)     ;
(PID.TID 0000.0001) PTRACERS_useKPP = /* apply KPP scheme */
(PID.TID 0000.0001)                   F
(PID.TID 0000.0001)     ;
(PID.TID 0000.0001) PTRACERS_ref = /* Reference vertical profile */
(PID.TID 0000.0001)    15 @  0.000000000000000E+00              /* K =  1: 15 */
(PID.TID 0000.0001)     ;
(PID.TID 0000.0001) PTRACERS_EvPrRn =/* tracer conc. in Evap. & Rain */
(PID.TID 0000.0001)                 1.234567000000000E+05
(PID.TID 0000.0001)     ;
(PID.TID 0000.0001)  -----------------------------------
(PID.TID 0000.0001)  tracer number :   80
(PID.TID 0000.0001) PTRACERS_names = /* Tracer short name */
(PID.TID 0000.0001)               'n08'
(PID.TID 0000.0001)     ;
(PID.TID 0000.0001) PTRACERS_long_names = /* Tracer long name */
(PID.TID 0000.0001)               ''
(PID.TID 0000.0001)     ;
(PID.TID 0000.0001) PTRACERS_ioLabel = /* tracer IO Label */
(PID.TID 0000.0001)               '80'
(PID.TID 0000.0001)     ;
(PID.TID 0000.0001) PTRACERS_advScheme = /* Advection Scheme */
(PID.TID 0000.0001)                      33
(PID.TID 0000.0001)     ;
(PID.TID 0000.0001) PTRACERS_SOM_Advection = /* tracer uses SOM advection scheme */
(PID.TID 0000.0001)                   F
(PID.TID 0000.0001)     ;
(PID.TID 0000.0001) PTRACERS_ImplVertAdv = /* implicit vert. advection flag */
(PID.TID 0000.0001)                   F
(PID.TID 0000.0001)     ;
(PID.TID 0000.0001) PTRACERS_diffKh = /* Laplacian Diffusivity */
(PID.TID 0000.0001)                 0.000000000000000E+00
(PID.TID 0000.0001)     ;
(PID.TID 0000.0001) PTRACERS_diffK4 = /* Biharmonic Diffusivity */
(PID.TID 0000.0001)                 0.000000000000000E+00
(PID.TID 0000.0001)     ;
(PID.TID 0000.0001) PTRACERS_diffKrNr = /* Vertical Diffusivity */
(PID.TID 0000.0001)    15 @  1.000000000000000E-05              /* K =  1: 15 */
(PID.TID 0000.0001)     ;
(PID.TID 0000.0001) PTRACERS_useGMRedi = /* apply GM-Redi */
(PID.TID 0000.0001)                   T
(PID.TID 0000.0001)     ;
(PID.TID 0000.0001) PTRACERS_useDWNSLP = /* apply DOWN-SLOPE Flow */
(PID.TID 0000.0001)                   F
(PID.TID 0000.0001)     ;
(PID.TID 0000.0001) PTRACERS_useKPP = /* apply KPP scheme */
(PID.TID 0000.0001)                   F
(PID.TID 0000.0001)     ;
(PID.TID 0000.0001) PTRACERS_ref = /* Reference vertical profile */
(PID.TID 0000.0001)    15 @  0.000000000000000E+00              /* K =  1: 15 */
(PID.TID 0000.0001)     ;
(PID.TID 0000.0001) PTRACERS_EvPrRn =/* tracer conc. in Evap. & Rain */
(PID.TID 0000.0001)                 1.234567000000000E+05
(PID.TID 0000.0001)     ;
(PID.TID 0000.0001)  -----------------------------------
(PID.TID 0000.0001)  tracer number :   81
(PID.TID 0000.0001) PTRACERS_names = /* Tracer short name */
(PID.TID 0000.0001)               'n09'
(PID.TID 0000.0001)     ;
(PID.TID 0000.0001) PTRACERS_long_names = /* Tracer long name */
(PID.TID 0000.0001)               ''
(PID.TID 0000.0001)     ;
(PID.TID 0000.0001) PTRACERS_ioLabel = /* tracer IO Label */
(PID.TID 0000.0001)               '81'
(PID.TID 0000.0001)     ;
(PID.TID 0000.0001) PTRACERS_advScheme = /* Advection Scheme */
(PID.TID 0000.0001)                      33
(PID.TID 0000.0001)     ;
(PID.TID 0000.0001) PTRACERS_SOM_Advection = /* tracer uses SOM advection scheme */
(PID.TID 0000.0001)                   F
(PID.TID 0000.0001)     ;
(PID.TID 0000.0001) PTRACERS_ImplVertAdv = /* implicit vert. advection flag */
(PID.TID 0000.0001)                   F
(PID.TID 0000.0001)     ;
(PID.TID 0000.0001) PTRACERS_diffKh = /* Laplacian Diffusivity */
(PID.TID 0000.0001)                 0.000000000000000E+00
(PID.TID 0000.0001)     ;
(PID.TID 0000.0001) PTRACERS_diffK4 = /* Biharmonic Diffusivity */
(PID.TID 0000.0001)                 0.000000000000000E+00
(PID.TID 0000.0001)     ;
(PID.TID 0000.0001) PTRACERS_diffKrNr = /* Vertical Diffusivity */
(PID.TID 0000.0001)    15 @  1.000000000000000E-05              /* K =  1: 15 */
(PID.TID 0000.0001)     ;
(PID.TID 0000.0001) PTRACERS_useGMRedi = /* apply GM-Redi */
(PID.TID 0000.0001)                   T
(PID.TID 0000.0001)     ;
(PID.TID 0000.0001) PTRACERS_useDWNSLP = /* apply DOWN-SLOPE Flow */
(PID.TID 0000.0001)                   F
(PID.TID 0000.0001)     ;
(PID.TID 0000.0001) PTRACERS_useKPP = /* apply KPP scheme */
(PID.TID 0000.0001)                   F
(PID.TID 0000.0001)     ;
(PID.TID 0000.0001) PTRACERS_ref = /* Reference vertical profile */
(PID.TID 0000.0001)    15 @  0.000000000000000E+00              /* K =  1: 15 */
(PID.TID 0000.0001)     ;
(PID.TID 0000.0001) PTRACERS_EvPrRn =/* tracer conc. in Evap. & Rain */
(PID.TID 0000.0001)                 1.234567000000000E+05
(PID.TID 0000.0001)     ;
(PID.TID 0000.0001)  -----------------------------------
(PID.TID 0000.0001)  tracer number :   82
(PID.TID 0000.0001) PTRACERS_names = /* Tracer short name */
(PID.TID 0000.0001)               'n10'
(PID.TID 0000.0001)     ;
(PID.TID 0000.0001) PTRACERS_long_names = /* Tracer long name */
(PID.TID 0000.0001)               ''
(PID.TID 0000.0001)     ;
(PID.TID 0000.0001) PTRACERS_ioLabel = /* tracer IO Label */
(PID.TID 0000.0001)               '82'
(PID.TID 0000.0001)     ;
(PID.TID 0000.0001) PTRACERS_advScheme = /* Advection Scheme */
(PID.TID 0000.0001)                      33
(PID.TID 0000.0001)     ;
(PID.TID 0000.0001) PTRACERS_SOM_Advection = /* tracer uses SOM advection scheme */
(PID.TID 0000.0001)                   F
(PID.TID 0000.0001)     ;
(PID.TID 0000.0001) PTRACERS_ImplVertAdv = /* implicit vert. advection flag */
(PID.TID 0000.0001)                   F
(PID.TID 0000.0001)     ;
(PID.TID 0000.0001) PTRACERS_diffKh = /* Laplacian Diffusivity */
(PID.TID 0000.0001)                 0.000000000000000E+00
(PID.TID 0000.0001)     ;
(PID.TID 0000.0001) PTRACERS_diffK4 = /* Biharmonic Diffusivity */
(PID.TID 0000.0001)                 0.000000000000000E+00
(PID.TID 0000.0001)     ;
(PID.TID 0000.0001) PTRACERS_diffKrNr = /* Vertical Diffusivity */
(PID.TID 0000.0001)    15 @  1.000000000000000E-05              /* K =  1: 15 */
(PID.TID 0000.0001)     ;
(PID.TID 0000.0001) PTRACERS_useGMRedi = /* apply GM-Redi */
(PID.TID 0000.0001)                   T
(PID.TID 0000.0001)     ;
(PID.TID 0000.0001) PTRACERS_useDWNSLP = /* apply DOWN-SLOPE Flow */
(PID.TID 0000.0001)                   F
(PID.TID 0000.0001)     ;
(PID.TID 0000.0001) PTRACERS_useKPP = /* apply KPP scheme */
(PID.TID 0000.0001)                   F
(PID.TID 0000.0001)     ;
(PID.TID 0000.0001) PTRACERS_ref = /* Reference vertical profile */
(PID.TID 0000.0001)    15 @  0.000000000000000E+00              /* K =  1: 15 */
(PID.TID 0000.0001)     ;
(PID.TID 0000.0001) PTRACERS_EvPrRn =/* tracer conc. in Evap. & Rain */
(PID.TID 0000.0001)                 1.234567000000000E+05
(PID.TID 0000.0001)     ;
(PID.TID 0000.0001)  -----------------------------------
(PID.TID 0000.0001)  tracer number :   83
(PID.TID 0000.0001) PTRACERS_names = /* Tracer short name */
(PID.TID 0000.0001)               'n11'
(PID.TID 0000.0001)     ;
(PID.TID 0000.0001) PTRACERS_long_names = /* Tracer long name */
(PID.TID 0000.0001)               ''
(PID.TID 0000.0001)     ;
(PID.TID 0000.0001) PTRACERS_ioLabel = /* tracer IO Label */
(PID.TID 0000.0001)               '83'
(PID.TID 0000.0001)     ;
(PID.TID 0000.0001) PTRACERS_advScheme = /* Advection Scheme */
(PID.TID 0000.0001)                      33
(PID.TID 0000.0001)     ;
(PID.TID 0000.0001) PTRACERS_SOM_Advection = /* tracer uses SOM advection scheme */
(PID.TID 0000.0001)                   F
(PID.TID 0000.0001)     ;
(PID.TID 0000.0001) PTRACERS_ImplVertAdv = /* implicit vert. advection flag */
(PID.TID 0000.0001)                   F
(PID.TID 0000.0001)     ;
(PID.TID 0000.0001) PTRACERS_diffKh = /* Laplacian Diffusivity */
(PID.TID 0000.0001)                 0.000000000000000E+00
(PID.TID 0000.0001)     ;
(PID.TID 0000.0001) PTRACERS_diffK4 = /* Biharmonic Diffusivity */
(PID.TID 0000.0001)                 0.000000000000000E+00
(PID.TID 0000.0001)     ;
(PID.TID 0000.0001) PTRACERS_diffKrNr = /* Vertical Diffusivity */
(PID.TID 0000.0001)    15 @  1.000000000000000E-05              /* K =  1: 15 */
(PID.TID 0000.0001)     ;
(PID.TID 0000.0001) PTRACERS_useGMRedi = /* apply GM-Redi */
(PID.TID 0000.0001)                   T
(PID.TID 0000.0001)     ;
(PID.TID 0000.0001) PTRACERS_useDWNSLP = /* apply DOWN-SLOPE Flow */
(PID.TID 0000.0001)                   F
(PID.TID 0000.0001)     ;
(PID.TID 0000.0001) PTRACERS_useKPP = /* apply KPP scheme */
(PID.TID 0000.0001)                   F
(PID.TID 0000.0001)     ;
(PID.TID 0000.0001) PTRACERS_ref = /* Reference vertical profile */
(PID.TID 0000.0001)    15 @  0.000000000000000E+00              /* K =  1: 15 */
(PID.TID 0000.0001)     ;
(PID.TID 0000.0001) PTRACERS_EvPrRn =/* tracer conc. in Evap. & Rain */
(PID.TID 0000.0001)                 1.234567000000000E+05
(PID.TID 0000.0001)     ;
(PID.TID 0000.0001)  -----------------------------------
(PID.TID 0000.0001)  tracer number :   84
(PID.TID 0000.0001) PTRACERS_names = /* Tracer short name */
(PID.TID 0000.0001)               'n12'
(PID.TID 0000.0001)     ;
(PID.TID 0000.0001) PTRACERS_long_names = /* Tracer long name */
(PID.TID 0000.0001)               ''
(PID.TID 0000.0001)     ;
(PID.TID 0000.0001) PTRACERS_ioLabel = /* tracer IO Label */
(PID.TID 0000.0001)               '84'
(PID.TID 0000.0001)     ;
(PID.TID 0000.0001) PTRACERS_advScheme = /* Advection Scheme */
(PID.TID 0000.0001)                      33
(PID.TID 0000.0001)     ;
(PID.TID 0000.0001) PTRACERS_SOM_Advection = /* tracer uses SOM advection scheme */
(PID.TID 0000.0001)                   F
(PID.TID 0000.0001)     ;
(PID.TID 0000.0001) PTRACERS_ImplVertAdv = /* implicit vert. advection flag */
(PID.TID 0000.0001)                   F
(PID.TID 0000.0001)     ;
(PID.TID 0000.0001) PTRACERS_diffKh = /* Laplacian Diffusivity */
(PID.TID 0000.0001)                 0.000000000000000E+00
(PID.TID 0000.0001)     ;
(PID.TID 0000.0001) PTRACERS_diffK4 = /* Biharmonic Diffusivity */
(PID.TID 0000.0001)                 0.000000000000000E+00
(PID.TID 0000.0001)     ;
(PID.TID 0000.0001) PTRACERS_diffKrNr = /* Vertical Diffusivity */
(PID.TID 0000.0001)    15 @  1.000000000000000E-05              /* K =  1: 15 */
(PID.TID 0000.0001)     ;
(PID.TID 0000.0001) PTRACERS_useGMRedi = /* apply GM-Redi */
(PID.TID 0000.0001)                   T
(PID.TID 0000.0001)     ;
(PID.TID 0000.0001) PTRACERS_useDWNSLP = /* apply DOWN-SLOPE Flow */
(PID.TID 0000.0001)                   F
(PID.TID 0000.0001)     ;
(PID.TID 0000.0001) PTRACERS_useKPP = /* apply KPP scheme */
(PID.TID 0000.0001)                   F
(PID.TID 0000.0001)     ;
(PID.TID 0000.0001) PTRACERS_ref = /* Reference vertical profile */
(PID.TID 0000.0001)    15 @  0.000000000000000E+00              /* K =  1: 15 */
(PID.TID 0000.0001)     ;
(PID.TID 0000.0001) PTRACERS_EvPrRn =/* tracer conc. in Evap. & Rain */
(PID.TID 0000.0001)                 1.234567000000000E+05
(PID.TID 0000.0001)     ;
(PID.TID 0000.0001)  -----------------------------------
(PID.TID 0000.0001)  tracer number :   85
(PID.TID 0000.0001) PTRACERS_names = /* Tracer short name */
(PID.TID 0000.0001)               'n13'
(PID.TID 0000.0001)     ;
(PID.TID 0000.0001) PTRACERS_long_names = /* Tracer long name */
(PID.TID 0000.0001)               ''
(PID.TID 0000.0001)     ;
(PID.TID 0000.0001) PTRACERS_ioLabel = /* tracer IO Label */
(PID.TID 0000.0001)               '85'
(PID.TID 0000.0001)     ;
(PID.TID 0000.0001) PTRACERS_advScheme = /* Advection Scheme */
(PID.TID 0000.0001)                      33
(PID.TID 0000.0001)     ;
(PID.TID 0000.0001) PTRACERS_SOM_Advection = /* tracer uses SOM advection scheme */
(PID.TID 0000.0001)                   F
(PID.TID 0000.0001)     ;
(PID.TID 0000.0001) PTRACERS_ImplVertAdv = /* implicit vert. advection flag */
(PID.TID 0000.0001)                   F
(PID.TID 0000.0001)     ;
(PID.TID 0000.0001) PTRACERS_diffKh = /* Laplacian Diffusivity */
(PID.TID 0000.0001)                 0.000000000000000E+00
(PID.TID 0000.0001)     ;
(PID.TID 0000.0001) PTRACERS_diffK4 = /* Biharmonic Diffusivity */
(PID.TID 0000.0001)                 0.000000000000000E+00
(PID.TID 0000.0001)     ;
(PID.TID 0000.0001) PTRACERS_diffKrNr = /* Vertical Diffusivity */
(PID.TID 0000.0001)    15 @  1.000000000000000E-05              /* K =  1: 15 */
(PID.TID 0000.0001)     ;
(PID.TID 0000.0001) PTRACERS_useGMRedi = /* apply GM-Redi */
(PID.TID 0000.0001)                   T
(PID.TID 0000.0001)     ;
(PID.TID 0000.0001) PTRACERS_useDWNSLP = /* apply DOWN-SLOPE Flow */
(PID.TID 0000.0001)                   F
(PID.TID 0000.0001)     ;
(PID.TID 0000.0001) PTRACERS_useKPP = /* apply KPP scheme */
(PID.TID 0000.0001)                   F
(PID.TID 0000.0001)     ;
(PID.TID 0000.0001) PTRACERS_ref = /* Reference vertical profile */
(PID.TID 0000.0001)    15 @  0.000000000000000E+00              /* K =  1: 15 */
(PID.TID 0000.0001)     ;
(PID.TID 0000.0001) PTRACERS_EvPrRn =/* tracer conc. in Evap. & Rain */
(PID.TID 0000.0001)                 1.234567000000000E+05
(PID.TID 0000.0001)     ;
(PID.TID 0000.0001)  -----------------------------------
(PID.TID 0000.0001)  tracer number :   86
(PID.TID 0000.0001) PTRACERS_names = /* Tracer short name */
(PID.TID 0000.0001)               'n14'
(PID.TID 0000.0001)     ;
(PID.TID 0000.0001) PTRACERS_long_names = /* Tracer long name */
(PID.TID 0000.0001)               ''
(PID.TID 0000.0001)     ;
(PID.TID 0000.0001) PTRACERS_ioLabel = /* tracer IO Label */
(PID.TID 0000.0001)               '86'
(PID.TID 0000.0001)     ;
(PID.TID 0000.0001) PTRACERS_advScheme = /* Advection Scheme */
(PID.TID 0000.0001)                      33
(PID.TID 0000.0001)     ;
(PID.TID 0000.0001) PTRACERS_SOM_Advection = /* tracer uses SOM advection scheme */
(PID.TID 0000.0001)                   F
(PID.TID 0000.0001)     ;
(PID.TID 0000.0001) PTRACERS_ImplVertAdv = /* implicit vert. advection flag */
(PID.TID 0000.0001)                   F
(PID.TID 0000.0001)     ;
(PID.TID 0000.0001) PTRACERS_diffKh = /* Laplacian Diffusivity */
(PID.TID 0000.0001)                 0.000000000000000E+00
(PID.TID 0000.0001)     ;
(PID.TID 0000.0001) PTRACERS_diffK4 = /* Biharmonic Diffusivity */
(PID.TID 0000.0001)                 0.000000000000000E+00
(PID.TID 0000.0001)     ;
(PID.TID 0000.0001) PTRACERS_diffKrNr = /* Vertical Diffusivity */
(PID.TID 0000.0001)    15 @  1.000000000000000E-05              /* K =  1: 15 */
(PID.TID 0000.0001)     ;
(PID.TID 0000.0001) PTRACERS_useGMRedi = /* apply GM-Redi */
(PID.TID 0000.0001)                   T
(PID.TID 0000.0001)     ;
(PID.TID 0000.0001) PTRACERS_useDWNSLP = /* apply DOWN-SLOPE Flow */
(PID.TID 0000.0001)                   F
(PID.TID 0000.0001)     ;
(PID.TID 0000.0001) PTRACERS_useKPP = /* apply KPP scheme */
(PID.TID 0000.0001)                   F
(PID.TID 0000.0001)     ;
(PID.TID 0000.0001) PTRACERS_ref = /* Reference vertical profile */
(PID.TID 0000.0001)    15 @  0.000000000000000E+00              /* K =  1: 15 */
(PID.TID 0000.0001)     ;
(PID.TID 0000.0001) PTRACERS_EvPrRn =/* tracer conc. in Evap. & Rain */
(PID.TID 0000.0001)                 1.234567000000000E+05
(PID.TID 0000.0001)     ;
(PID.TID 0000.0001)  -----------------------------------
(PID.TID 0000.0001)  tracer number :   87
(PID.TID 0000.0001) PTRACERS_names = /* Tracer short name */
(PID.TID 0000.0001)               'n15'
(PID.TID 0000.0001)     ;
(PID.TID 0000.0001) PTRACERS_long_names = /* Tracer long name */
(PID.TID 0000.0001)               ''
(PID.TID 0000.0001)     ;
(PID.TID 0000.0001) PTRACERS_ioLabel = /* tracer IO Label */
(PID.TID 0000.0001)               '87'
(PID.TID 0000.0001)     ;
(PID.TID 0000.0001) PTRACERS_advScheme = /* Advection Scheme */
(PID.TID 0000.0001)                      33
(PID.TID 0000.0001)     ;
(PID.TID 0000.0001) PTRACERS_SOM_Advection = /* tracer uses SOM advection scheme */
(PID.TID 0000.0001)                   F
(PID.TID 0000.0001)     ;
(PID.TID 0000.0001) PTRACERS_ImplVertAdv = /* implicit vert. advection flag */
(PID.TID 0000.0001)                   F
(PID.TID 0000.0001)     ;
(PID.TID 0000.0001) PTRACERS_diffKh = /* Laplacian Diffusivity */
(PID.TID 0000.0001)                 0.000000000000000E+00
(PID.TID 0000.0001)     ;
(PID.TID 0000.0001) PTRACERS_diffK4 = /* Biharmonic Diffusivity */
(PID.TID 0000.0001)                 0.000000000000000E+00
(PID.TID 0000.0001)     ;
(PID.TID 0000.0001) PTRACERS_diffKrNr = /* Vertical Diffusivity */
(PID.TID 0000.0001)    15 @  1.000000000000000E-05              /* K =  1: 15 */
(PID.TID 0000.0001)     ;
(PID.TID 0000.0001) PTRACERS_useGMRedi = /* apply GM-Redi */
(PID.TID 0000.0001)                   T
(PID.TID 0000.0001)     ;
(PID.TID 0000.0001) PTRACERS_useDWNSLP = /* apply DOWN-SLOPE Flow */
(PID.TID 0000.0001)                   F
(PID.TID 0000.0001)     ;
(PID.TID 0000.0001) PTRACERS_useKPP = /* apply KPP scheme */
(PID.TID 0000.0001)                   F
(PID.TID 0000.0001)     ;
(PID.TID 0000.0001) PTRACERS_ref = /* Reference vertical profile */
(PID.TID 0000.0001)    15 @  0.000000000000000E+00              /* K =  1: 15 */
(PID.TID 0000.0001)     ;
(PID.TID 0000.0001) PTRACERS_EvPrRn =/* tracer conc. in Evap. & Rain */
(PID.TID 0000.0001)                 1.234567000000000E+05
(PID.TID 0000.0001)     ;
(PID.TID 0000.0001)  -----------------------------------
(PID.TID 0000.0001)  tracer number :   88
(PID.TID 0000.0001) PTRACERS_names = /* Tracer short name */
(PID.TID 0000.0001)               'n16'
(PID.TID 0000.0001)     ;
(PID.TID 0000.0001) PTRACERS_long_names = /* Tracer long name */
(PID.TID 0000.0001)               ''
(PID.TID 0000.0001)     ;
(PID.TID 0000.0001) PTRACERS_ioLabel = /* tracer IO Label */
(PID.TID 0000.0001)               '88'
(PID.TID 0000.0001)     ;
(PID.TID 0000.0001) PTRACERS_advScheme = /* Advection Scheme */
(PID.TID 0000.0001)                      33
(PID.TID 0000.0001)     ;
(PID.TID 0000.0001) PTRACERS_SOM_Advection = /* tracer uses SOM advection scheme */
(PID.TID 0000.0001)                   F
(PID.TID 0000.0001)     ;
(PID.TID 0000.0001) PTRACERS_ImplVertAdv = /* implicit vert. advection flag */
(PID.TID 0000.0001)                   F
(PID.TID 0000.0001)     ;
(PID.TID 0000.0001) PTRACERS_diffKh = /* Laplacian Diffusivity */
(PID.TID 0000.0001)                 0.000000000000000E+00
(PID.TID 0000.0001)     ;
(PID.TID 0000.0001) PTRACERS_diffK4 = /* Biharmonic Diffusivity */
(PID.TID 0000.0001)                 0.000000000000000E+00
(PID.TID 0000.0001)     ;
(PID.TID 0000.0001) PTRACERS_diffKrNr = /* Vertical Diffusivity */
(PID.TID 0000.0001)    15 @  1.000000000000000E-05              /* K =  1: 15 */
(PID.TID 0000.0001)     ;
(PID.TID 0000.0001) PTRACERS_useGMRedi = /* apply GM-Redi */
(PID.TID 0000.0001)                   T
(PID.TID 0000.0001)     ;
(PID.TID 0000.0001) PTRACERS_useDWNSLP = /* apply DOWN-SLOPE Flow */
(PID.TID 0000.0001)                   F
(PID.TID 0000.0001)     ;
(PID.TID 0000.0001) PTRACERS_useKPP = /* apply KPP scheme */
(PID.TID 0000.0001)                   F
(PID.TID 0000.0001)     ;
(PID.TID 0000.0001) PTRACERS_ref = /* Reference vertical profile */
(PID.TID 0000.0001)    15 @  0.000000000000000E+00              /* K =  1: 15 */
(PID.TID 0000.0001)     ;
(PID.TID 0000.0001) PTRACERS_EvPrRn =/* tracer conc. in Evap. & Rain */
(PID.TID 0000.0001)                 1.234567000000000E+05
(PID.TID 0000.0001)     ;
(PID.TID 0000.0001)  -----------------------------------
(PID.TID 0000.0001)  tracer number :   89
(PID.TID 0000.0001) PTRACERS_names = /* Tracer short name */
(PID.TID 0000.0001)               'n17'
(PID.TID 0000.0001)     ;
(PID.TID 0000.0001) PTRACERS_long_names = /* Tracer long name */
(PID.TID 0000.0001)               ''
(PID.TID 0000.0001)     ;
(PID.TID 0000.0001) PTRACERS_ioLabel = /* tracer IO Label */
(PID.TID 0000.0001)               '89'
(PID.TID 0000.0001)     ;
(PID.TID 0000.0001) PTRACERS_advScheme = /* Advection Scheme */
(PID.TID 0000.0001)                      33
(PID.TID 0000.0001)     ;
(PID.TID 0000.0001) PTRACERS_SOM_Advection = /* tracer uses SOM advection scheme */
(PID.TID 0000.0001)                   F
(PID.TID 0000.0001)     ;
(PID.TID 0000.0001) PTRACERS_ImplVertAdv = /* implicit vert. advection flag */
(PID.TID 0000.0001)                   F
(PID.TID 0000.0001)     ;
(PID.TID 0000.0001) PTRACERS_diffKh = /* Laplacian Diffusivity */
(PID.TID 0000.0001)                 0.000000000000000E+00
(PID.TID 0000.0001)     ;
(PID.TID 0000.0001) PTRACERS_diffK4 = /* Biharmonic Diffusivity */
(PID.TID 0000.0001)                 0.000000000000000E+00
(PID.TID 0000.0001)     ;
(PID.TID 0000.0001) PTRACERS_diffKrNr = /* Vertical Diffusivity */
(PID.TID 0000.0001)    15 @  1.000000000000000E-05              /* K =  1: 15 */
(PID.TID 0000.0001)     ;
(PID.TID 0000.0001) PTRACERS_useGMRedi = /* apply GM-Redi */
(PID.TID 0000.0001)                   T
(PID.TID 0000.0001)     ;
(PID.TID 0000.0001) PTRACERS_useDWNSLP = /* apply DOWN-SLOPE Flow */
(PID.TID 0000.0001)                   F
(PID.TID 0000.0001)     ;
(PID.TID 0000.0001) PTRACERS_useKPP = /* apply KPP scheme */
(PID.TID 0000.0001)                   F
(PID.TID 0000.0001)     ;
(PID.TID 0000.0001) PTRACERS_ref = /* Reference vertical profile */
(PID.TID 0000.0001)    15 @  0.000000000000000E+00              /* K =  1: 15 */
(PID.TID 0000.0001)     ;
(PID.TID 0000.0001) PTRACERS_EvPrRn =/* tracer conc. in Evap. & Rain */
(PID.TID 0000.0001)                 1.234567000000000E+05
(PID.TID 0000.0001)     ;
(PID.TID 0000.0001)  -----------------------------------
(PID.TID 0000.0001)  tracer number :   90
(PID.TID 0000.0001) PTRACERS_names = /* Tracer short name */
(PID.TID 0000.0001)               'n18'
(PID.TID 0000.0001)     ;
(PID.TID 0000.0001) PTRACERS_long_names = /* Tracer long name */
(PID.TID 0000.0001)               ''
(PID.TID 0000.0001)     ;
(PID.TID 0000.0001) PTRACERS_ioLabel = /* tracer IO Label */
(PID.TID 0000.0001)               '90'
(PID.TID 0000.0001)     ;
(PID.TID 0000.0001) PTRACERS_advScheme = /* Advection Scheme */
(PID.TID 0000.0001)                      33
(PID.TID 0000.0001)     ;
(PID.TID 0000.0001) PTRACERS_SOM_Advection = /* tracer uses SOM advection scheme */
(PID.TID 0000.0001)                   F
(PID.TID 0000.0001)     ;
(PID.TID 0000.0001) PTRACERS_ImplVertAdv = /* implicit vert. advection flag */
(PID.TID 0000.0001)                   F
(PID.TID 0000.0001)     ;
(PID.TID 0000.0001) PTRACERS_diffKh = /* Laplacian Diffusivity */
(PID.TID 0000.0001)                 0.000000000000000E+00
(PID.TID 0000.0001)     ;
(PID.TID 0000.0001) PTRACERS_diffK4 = /* Biharmonic Diffusivity */
(PID.TID 0000.0001)                 0.000000000000000E+00
(PID.TID 0000.0001)     ;
(PID.TID 0000.0001) PTRACERS_diffKrNr = /* Vertical Diffusivity */
(PID.TID 0000.0001)    15 @  1.000000000000000E-05              /* K =  1: 15 */
(PID.TID 0000.0001)     ;
(PID.TID 0000.0001) PTRACERS_useGMRedi = /* apply GM-Redi */
(PID.TID 0000.0001)                   T
(PID.TID 0000.0001)     ;
(PID.TID 0000.0001) PTRACERS_useDWNSLP = /* apply DOWN-SLOPE Flow */
(PID.TID 0000.0001)                   F
(PID.TID 0000.0001)     ;
(PID.TID 0000.0001) PTRACERS_useKPP = /* apply KPP scheme */
(PID.TID 0000.0001)                   F
(PID.TID 0000.0001)     ;
(PID.TID 0000.0001) PTRACERS_ref = /* Reference vertical profile */
(PID.TID 0000.0001)    15 @  0.000000000000000E+00              /* K =  1: 15 */
(PID.TID 0000.0001)     ;
(PID.TID 0000.0001) PTRACERS_EvPrRn =/* tracer conc. in Evap. & Rain */
(PID.TID 0000.0001)                 1.234567000000000E+05
(PID.TID 0000.0001)     ;
(PID.TID 0000.0001)  -----------------------------------
(PID.TID 0000.0001)  tracer number :   91
(PID.TID 0000.0001) PTRACERS_names = /* Tracer short name */
(PID.TID 0000.0001)               'n19'
(PID.TID 0000.0001)     ;
(PID.TID 0000.0001) PTRACERS_long_names = /* Tracer long name */
(PID.TID 0000.0001)               ''
(PID.TID 0000.0001)     ;
(PID.TID 0000.0001) PTRACERS_ioLabel = /* tracer IO Label */
(PID.TID 0000.0001)               '91'
(PID.TID 0000.0001)     ;
(PID.TID 0000.0001) PTRACERS_advScheme = /* Advection Scheme */
(PID.TID 0000.0001)                      33
(PID.TID 0000.0001)     ;
(PID.TID 0000.0001) PTRACERS_SOM_Advection = /* tracer uses SOM advection scheme */
(PID.TID 0000.0001)                   F
(PID.TID 0000.0001)     ;
(PID.TID 0000.0001) PTRACERS_ImplVertAdv = /* implicit vert. advection flag */
(PID.TID 0000.0001)                   F
(PID.TID 0000.0001)     ;
(PID.TID 0000.0001) PTRACERS_diffKh = /* Laplacian Diffusivity */
(PID.TID 0000.0001)                 0.000000000000000E+00
(PID.TID 0000.0001)     ;
(PID.TID 0000.0001) PTRACERS_diffK4 = /* Biharmonic Diffusivity */
(PID.TID 0000.0001)                 0.000000000000000E+00
(PID.TID 0000.0001)     ;
(PID.TID 0000.0001) PTRACERS_diffKrNr = /* Vertical Diffusivity */
(PID.TID 0000.0001)    15 @  1.000000000000000E-05              /* K =  1: 15 */
(PID.TID 0000.0001)     ;
(PID.TID 0000.0001) PTRACERS_useGMRedi = /* apply GM-Redi */
(PID.TID 0000.0001)                   T
(PID.TID 0000.0001)     ;
(PID.TID 0000.0001) PTRACERS_useDWNSLP = /* apply DOWN-SLOPE Flow */
(PID.TID 0000.0001)                   F
(PID.TID 0000.0001)     ;
(PID.TID 0000.0001) PTRACERS_useKPP = /* apply KPP scheme */
(PID.TID 0000.0001)                   F
(PID.TID 0000.0001)     ;
(PID.TID 0000.0001) PTRACERS_ref = /* Reference vertical profile */
(PID.TID 0000.0001)    15 @  0.000000000000000E+00              /* K =  1: 15 */
(PID.TID 0000.0001)     ;
(PID.TID 0000.0001) PTRACERS_EvPrRn =/* tracer conc. in Evap. & Rain */
(PID.TID 0000.0001)                 1.234567000000000E+05
(PID.TID 0000.0001)     ;
(PID.TID 0000.0001)  -----------------------------------
(PID.TID 0000.0001)  tracer number :   92
(PID.TID 0000.0001) PTRACERS_names = /* Tracer short name */
(PID.TID 0000.0001)               'n20'
(PID.TID 0000.0001)     ;
(PID.TID 0000.0001) PTRACERS_long_names = /* Tracer long name */
(PID.TID 0000.0001)               ''
(PID.TID 0000.0001)     ;
(PID.TID 0000.0001) PTRACERS_ioLabel = /* tracer IO Label */
(PID.TID 0000.0001)               '92'
(PID.TID 0000.0001)     ;
(PID.TID 0000.0001) PTRACERS_advScheme = /* Advection Scheme */
(PID.TID 0000.0001)                      33
(PID.TID 0000.0001)     ;
(PID.TID 0000.0001) PTRACERS_SOM_Advection = /* tracer uses SOM advection scheme */
(PID.TID 0000.0001)                   F
(PID.TID 0000.0001)     ;
(PID.TID 0000.0001) PTRACERS_ImplVertAdv = /* implicit vert. advection flag */
(PID.TID 0000.0001)                   F
(PID.TID 0000.0001)     ;
(PID.TID 0000.0001) PTRACERS_diffKh = /* Laplacian Diffusivity */
(PID.TID 0000.0001)                 0.000000000000000E+00
(PID.TID 0000.0001)     ;
(PID.TID 0000.0001) PTRACERS_diffK4 = /* Biharmonic Diffusivity */
(PID.TID 0000.0001)                 0.000000000000000E+00
(PID.TID 0000.0001)     ;
(PID.TID 0000.0001) PTRACERS_diffKrNr = /* Vertical Diffusivity */
(PID.TID 0000.0001)    15 @  1.000000000000000E-05              /* K =  1: 15 */
(PID.TID 0000.0001)     ;
(PID.TID 0000.0001) PTRACERS_useGMRedi = /* apply GM-Redi */
(PID.TID 0000.0001)                   T
(PID.TID 0000.0001)     ;
(PID.TID 0000.0001) PTRACERS_useDWNSLP = /* apply DOWN-SLOPE Flow */
(PID.TID 0000.0001)                   F
(PID.TID 0000.0001)     ;
(PID.TID 0000.0001) PTRACERS_useKPP = /* apply KPP scheme */
(PID.TID 0000.0001)                   F
(PID.TID 0000.0001)     ;
(PID.TID 0000.0001) PTRACERS_ref = /* Reference vertical profile */
(PID.TID 0000.0001)    15 @  0.000000000000000E+00              /* K =  1: 15 */
(PID.TID 0000.0001)     ;
(PID.TID 0000.0001) PTRACERS_EvPrRn =/* tracer conc. in Evap. & Rain */
(PID.TID 0000.0001)                 1.234567000000000E+05
(PID.TID 0000.0001)     ;
(PID.TID 0000.0001)  -----------------------------------
(PID.TID 0000.0001)  tracer number :   93
(PID.TID 0000.0001) PTRACERS_names = /* Tracer short name */
(PID.TID 0000.0001)               'n21'
(PID.TID 0000.0001)     ;
(PID.TID 0000.0001) PTRACERS_long_names = /* Tracer long name */
(PID.TID 0000.0001)               ''
(PID.TID 0000.0001)     ;
(PID.TID 0000.0001) PTRACERS_ioLabel = /* tracer IO Label */
(PID.TID 0000.0001)               '93'
(PID.TID 0000.0001)     ;
(PID.TID 0000.0001) PTRACERS_advScheme = /* Advection Scheme */
(PID.TID 0000.0001)                      33
(PID.TID 0000.0001)     ;
(PID.TID 0000.0001) PTRACERS_SOM_Advection = /* tracer uses SOM advection scheme */
(PID.TID 0000.0001)                   F
(PID.TID 0000.0001)     ;
(PID.TID 0000.0001) PTRACERS_ImplVertAdv = /* implicit vert. advection flag */
(PID.TID 0000.0001)                   F
(PID.TID 0000.0001)     ;
(PID.TID 0000.0001) PTRACERS_diffKh = /* Laplacian Diffusivity */
(PID.TID 0000.0001)                 0.000000000000000E+00
(PID.TID 0000.0001)     ;
(PID.TID 0000.0001) PTRACERS_diffK4 = /* Biharmonic Diffusivity */
(PID.TID 0000.0001)                 0.000000000000000E+00
(PID.TID 0000.0001)     ;
(PID.TID 0000.0001) PTRACERS_diffKrNr = /* Vertical Diffusivity */
(PID.TID 0000.0001)    15 @  1.000000000000000E-05              /* K =  1: 15 */
(PID.TID 0000.0001)     ;
(PID.TID 0000.0001) PTRACERS_useGMRedi = /* apply GM-Redi */
(PID.TID 0000.0001)                   T
(PID.TID 0000.0001)     ;
(PID.TID 0000.0001) PTRACERS_useDWNSLP = /* apply DOWN-SLOPE Flow */
(PID.TID 0000.0001)                   F
(PID.TID 0000.0001)     ;
(PID.TID 0000.0001) PTRACERS_useKPP = /* apply KPP scheme */
(PID.TID 0000.0001)                   F
(PID.TID 0000.0001)     ;
(PID.TID 0000.0001) PTRACERS_ref = /* Reference vertical profile */
(PID.TID 0000.0001)    15 @  0.000000000000000E+00              /* K =  1: 15 */
(PID.TID 0000.0001)     ;
(PID.TID 0000.0001) PTRACERS_EvPrRn =/* tracer conc. in Evap. & Rain */
(PID.TID 0000.0001)                 1.234567000000000E+05
(PID.TID 0000.0001)     ;
(PID.TID 0000.0001)  -----------------------------------
(PID.TID 0000.0001)  tracer number :   94
(PID.TID 0000.0001) PTRACERS_names = /* Tracer short name */
(PID.TID 0000.0001)               'n22'
(PID.TID 0000.0001)     ;
(PID.TID 0000.0001) PTRACERS_long_names = /* Tracer long name */
(PID.TID 0000.0001)               ''
(PID.TID 0000.0001)     ;
(PID.TID 0000.0001) PTRACERS_ioLabel = /* tracer IO Label */
(PID.TID 0000.0001)               '94'
(PID.TID 0000.0001)     ;
(PID.TID 0000.0001) PTRACERS_advScheme = /* Advection Scheme */
(PID.TID 0000.0001)                      33
(PID.TID 0000.0001)     ;
(PID.TID 0000.0001) PTRACERS_SOM_Advection = /* tracer uses SOM advection scheme */
(PID.TID 0000.0001)                   F
(PID.TID 0000.0001)     ;
(PID.TID 0000.0001) PTRACERS_ImplVertAdv = /* implicit vert. advection flag */
(PID.TID 0000.0001)                   F
(PID.TID 0000.0001)     ;
(PID.TID 0000.0001) PTRACERS_diffKh = /* Laplacian Diffusivity */
(PID.TID 0000.0001)                 0.000000000000000E+00
(PID.TID 0000.0001)     ;
(PID.TID 0000.0001) PTRACERS_diffK4 = /* Biharmonic Diffusivity */
(PID.TID 0000.0001)                 0.000000000000000E+00
(PID.TID 0000.0001)     ;
(PID.TID 0000.0001) PTRACERS_diffKrNr = /* Vertical Diffusivity */
(PID.TID 0000.0001)    15 @  1.000000000000000E-05              /* K =  1: 15 */
(PID.TID 0000.0001)     ;
(PID.TID 0000.0001) PTRACERS_useGMRedi = /* apply GM-Redi */
(PID.TID 0000.0001)                   T
(PID.TID 0000.0001)     ;
(PID.TID 0000.0001) PTRACERS_useDWNSLP = /* apply DOWN-SLOPE Flow */
(PID.TID 0000.0001)                   F
(PID.TID 0000.0001)     ;
(PID.TID 0000.0001) PTRACERS_useKPP = /* apply KPP scheme */
(PID.TID 0000.0001)                   F
(PID.TID 0000.0001)     ;
(PID.TID 0000.0001) PTRACERS_ref = /* Reference vertical profile */
(PID.TID 0000.0001)    15 @  0.000000000000000E+00              /* K =  1: 15 */
(PID.TID 0000.0001)     ;
(PID.TID 0000.0001) PTRACERS_EvPrRn =/* tracer conc. in Evap. & Rain */
(PID.TID 0000.0001)                 1.234567000000000E+05
(PID.TID 0000.0001)     ;
(PID.TID 0000.0001)  -----------------------------------
(PID.TID 0000.0001)  tracer number :   95
(PID.TID 0000.0001) PTRACERS_names = /* Tracer short name */
(PID.TID 0000.0001)               'n23'
(PID.TID 0000.0001)     ;
(PID.TID 0000.0001) PTRACERS_long_names = /* Tracer long name */
(PID.TID 0000.0001)               ''
(PID.TID 0000.0001)     ;
(PID.TID 0000.0001) PTRACERS_ioLabel = /* tracer IO Label */
(PID.TID 0000.0001)               '95'
(PID.TID 0000.0001)     ;
(PID.TID 0000.0001) PTRACERS_advScheme = /* Advection Scheme */
(PID.TID 0000.0001)                      33
(PID.TID 0000.0001)     ;
(PID.TID 0000.0001) PTRACERS_SOM_Advection = /* tracer uses SOM advection scheme */
(PID.TID 0000.0001)                   F
(PID.TID 0000.0001)     ;
(PID.TID 0000.0001) PTRACERS_ImplVertAdv = /* implicit vert. advection flag */
(PID.TID 0000.0001)                   F
(PID.TID 0000.0001)     ;
(PID.TID 0000.0001) PTRACERS_diffKh = /* Laplacian Diffusivity */
(PID.TID 0000.0001)                 0.000000000000000E+00
(PID.TID 0000.0001)     ;
(PID.TID 0000.0001) PTRACERS_diffK4 = /* Biharmonic Diffusivity */
(PID.TID 0000.0001)                 0.000000000000000E+00
(PID.TID 0000.0001)     ;
(PID.TID 0000.0001) PTRACERS_diffKrNr = /* Vertical Diffusivity */
(PID.TID 0000.0001)    15 @  1.000000000000000E-05              /* K =  1: 15 */
(PID.TID 0000.0001)     ;
(PID.TID 0000.0001) PTRACERS_useGMRedi = /* apply GM-Redi */
(PID.TID 0000.0001)                   T
(PID.TID 0000.0001)     ;
(PID.TID 0000.0001) PTRACERS_useDWNSLP = /* apply DOWN-SLOPE Flow */
(PID.TID 0000.0001)                   F
(PID.TID 0000.0001)     ;
(PID.TID 0000.0001) PTRACERS_useKPP = /* apply KPP scheme */
(PID.TID 0000.0001)                   F
(PID.TID 0000.0001)     ;
(PID.TID 0000.0001) PTRACERS_ref = /* Reference vertical profile */
(PID.TID 0000.0001)    15 @  0.000000000000000E+00              /* K =  1: 15 */
(PID.TID 0000.0001)     ;
(PID.TID 0000.0001) PTRACERS_EvPrRn =/* tracer conc. in Evap. & Rain */
(PID.TID 0000.0001)                 1.234567000000000E+05
(PID.TID 0000.0001)     ;
(PID.TID 0000.0001)  -----------------------------------
(PID.TID 0000.0001)  tracer number :   96
(PID.TID 0000.0001) PTRACERS_names = /* Tracer short name */
(PID.TID 0000.0001)               'n24'
(PID.TID 0000.0001)     ;
(PID.TID 0000.0001) PTRACERS_long_names = /* Tracer long name */
(PID.TID 0000.0001)               ''
(PID.TID 0000.0001)     ;
(PID.TID 0000.0001) PTRACERS_ioLabel = /* tracer IO Label */
(PID.TID 0000.0001)               '96'
(PID.TID 0000.0001)     ;
(PID.TID 0000.0001) PTRACERS_advScheme = /* Advection Scheme */
(PID.TID 0000.0001)                      33
(PID.TID 0000.0001)     ;
(PID.TID 0000.0001) PTRACERS_SOM_Advection = /* tracer uses SOM advection scheme */
(PID.TID 0000.0001)                   F
(PID.TID 0000.0001)     ;
(PID.TID 0000.0001) PTRACERS_ImplVertAdv = /* implicit vert. advection flag */
(PID.TID 0000.0001)                   F
(PID.TID 0000.0001)     ;
(PID.TID 0000.0001) PTRACERS_diffKh = /* Laplacian Diffusivity */
(PID.TID 0000.0001)                 0.000000000000000E+00
(PID.TID 0000.0001)     ;
(PID.TID 0000.0001) PTRACERS_diffK4 = /* Biharmonic Diffusivity */
(PID.TID 0000.0001)                 0.000000000000000E+00
(PID.TID 0000.0001)     ;
(PID.TID 0000.0001) PTRACERS_diffKrNr = /* Vertical Diffusivity */
(PID.TID 0000.0001)    15 @  1.000000000000000E-05              /* K =  1: 15 */
(PID.TID 0000.0001)     ;
(PID.TID 0000.0001) PTRACERS_useGMRedi = /* apply GM-Redi */
(PID.TID 0000.0001)                   T
(PID.TID 0000.0001)     ;
(PID.TID 0000.0001) PTRACERS_useDWNSLP = /* apply DOWN-SLOPE Flow */
(PID.TID 0000.0001)                   F
(PID.TID 0000.0001)     ;
(PID.TID 0000.0001) PTRACERS_useKPP = /* apply KPP scheme */
(PID.TID 0000.0001)                   F
(PID.TID 0000.0001)     ;
(PID.TID 0000.0001) PTRACERS_ref = /* Reference vertical profile */
(PID.TID 0000.0001)    15 @  0.000000000000000E+00              /* K =  1: 15 */
(PID.TID 0000.0001)     ;
(PID.TID 0000.0001) PTRACERS_EvPrRn =/* tracer conc. in Evap. & Rain */
(PID.TID 0000.0001)                 1.234567000000000E+05
(PID.TID 0000.0001)     ;
(PID.TID 0000.0001)  -----------------------------------
(PID.TID 0000.0001)  tracer number :   97
(PID.TID 0000.0001) PTRACERS_names = /* Tracer short name */
(PID.TID 0000.0001)               'n25'
(PID.TID 0000.0001)     ;
(PID.TID 0000.0001) PTRACERS_long_names = /* Tracer long name */
(PID.TID 0000.0001)               ''
(PID.TID 0000.0001)     ;
(PID.TID 0000.0001) PTRACERS_ioLabel = /* tracer IO Label */
(PID.TID 0000.0001)               '97'
(PID.TID 0000.0001)     ;
(PID.TID 0000.0001) PTRACERS_advScheme = /* Advection Scheme */
(PID.TID 0000.0001)                      33
(PID.TID 0000.0001)     ;
(PID.TID 0000.0001) PTRACERS_SOM_Advection = /* tracer uses SOM advection scheme */
(PID.TID 0000.0001)                   F
(PID.TID 0000.0001)     ;
(PID.TID 0000.0001) PTRACERS_ImplVertAdv = /* implicit vert. advection flag */
(PID.TID 0000.0001)                   F
(PID.TID 0000.0001)     ;
(PID.TID 0000.0001) PTRACERS_diffKh = /* Laplacian Diffusivity */
(PID.TID 0000.0001)                 0.000000000000000E+00
(PID.TID 0000.0001)     ;
(PID.TID 0000.0001) PTRACERS_diffK4 = /* Biharmonic Diffusivity */
(PID.TID 0000.0001)                 0.000000000000000E+00
(PID.TID 0000.0001)     ;
(PID.TID 0000.0001) PTRACERS_diffKrNr = /* Vertical Diffusivity */
(PID.TID 0000.0001)    15 @  1.000000000000000E-05              /* K =  1: 15 */
(PID.TID 0000.0001)     ;
(PID.TID 0000.0001) PTRACERS_useGMRedi = /* apply GM-Redi */
(PID.TID 0000.0001)                   T
(PID.TID 0000.0001)     ;
(PID.TID 0000.0001) PTRACERS_useDWNSLP = /* apply DOWN-SLOPE Flow */
(PID.TID 0000.0001)                   F
(PID.TID 0000.0001)     ;
(PID.TID 0000.0001) PTRACERS_useKPP = /* apply KPP scheme */
(PID.TID 0000.0001)                   F
(PID.TID 0000.0001)     ;
(PID.TID 0000.0001) PTRACERS_ref = /* Reference vertical profile */
(PID.TID 0000.0001)    15 @  0.000000000000000E+00              /* K =  1: 15 */
(PID.TID 0000.0001)     ;
(PID.TID 0000.0001) PTRACERS_EvPrRn =/* tracer conc. in Evap. & Rain */
(PID.TID 0000.0001)                 1.234567000000000E+05
(PID.TID 0000.0001)     ;
(PID.TID 0000.0001)  -----------------------------------
(PID.TID 0000.0001)  tracer number :   98
(PID.TID 0000.0001) PTRACERS_names = /* Tracer short name */
(PID.TID 0000.0001)               'n26'
(PID.TID 0000.0001)     ;
(PID.TID 0000.0001) PTRACERS_long_names = /* Tracer long name */
(PID.TID 0000.0001)               ''
(PID.TID 0000.0001)     ;
(PID.TID 0000.0001) PTRACERS_ioLabel = /* tracer IO Label */
(PID.TID 0000.0001)               '98'
(PID.TID 0000.0001)     ;
(PID.TID 0000.0001) PTRACERS_advScheme = /* Advection Scheme */
(PID.TID 0000.0001)                      33
(PID.TID 0000.0001)     ;
(PID.TID 0000.0001) PTRACERS_SOM_Advection = /* tracer uses SOM advection scheme */
(PID.TID 0000.0001)                   F
(PID.TID 0000.0001)     ;
(PID.TID 0000.0001) PTRACERS_ImplVertAdv = /* implicit vert. advection flag */
(PID.TID 0000.0001)                   F
(PID.TID 0000.0001)     ;
(PID.TID 0000.0001) PTRACERS_diffKh = /* Laplacian Diffusivity */
(PID.TID 0000.0001)                 0.000000000000000E+00
(PID.TID 0000.0001)     ;
(PID.TID 0000.0001) PTRACERS_diffK4 = /* Biharmonic Diffusivity */
(PID.TID 0000.0001)                 0.000000000000000E+00
(PID.TID 0000.0001)     ;
(PID.TID 0000.0001) PTRACERS_diffKrNr = /* Vertical Diffusivity */
(PID.TID 0000.0001)    15 @  1.000000000000000E-05              /* K =  1: 15 */
(PID.TID 0000.0001)     ;
(PID.TID 0000.0001) PTRACERS_useGMRedi = /* apply GM-Redi */
(PID.TID 0000.0001)                   T
(PID.TID 0000.0001)     ;
(PID.TID 0000.0001) PTRACERS_useDWNSLP = /* apply DOWN-SLOPE Flow */
(PID.TID 0000.0001)                   F
(PID.TID 0000.0001)     ;
(PID.TID 0000.0001) PTRACERS_useKPP = /* apply KPP scheme */
(PID.TID 0000.0001)                   F
(PID.TID 0000.0001)     ;
(PID.TID 0000.0001) PTRACERS_ref = /* Reference vertical profile */
(PID.TID 0000.0001)    15 @  0.000000000000000E+00              /* K =  1: 15 */
(PID.TID 0000.0001)     ;
(PID.TID 0000.0001) PTRACERS_EvPrRn =/* tracer conc. in Evap. & Rain */
(PID.TID 0000.0001)                 1.234567000000000E+05
(PID.TID 0000.0001)     ;
(PID.TID 0000.0001)  -----------------------------------
(PID.TID 0000.0001)  tracer number :   99
(PID.TID 0000.0001) PTRACERS_names = /* Tracer short name */
(PID.TID 0000.0001)               'n27'
(PID.TID 0000.0001)     ;
(PID.TID 0000.0001) PTRACERS_long_names = /* Tracer long name */
(PID.TID 0000.0001)               ''
(PID.TID 0000.0001)     ;
(PID.TID 0000.0001) PTRACERS_ioLabel = /* tracer IO Label */
(PID.TID 0000.0001)               '99'
(PID.TID 0000.0001)     ;
(PID.TID 0000.0001) PTRACERS_advScheme = /* Advection Scheme */
(PID.TID 0000.0001)                      33
(PID.TID 0000.0001)     ;
(PID.TID 0000.0001) PTRACERS_SOM_Advection = /* tracer uses SOM advection scheme */
(PID.TID 0000.0001)                   F
(PID.TID 0000.0001)     ;
(PID.TID 0000.0001) PTRACERS_ImplVertAdv = /* implicit vert. advection flag */
(PID.TID 0000.0001)                   F
(PID.TID 0000.0001)     ;
(PID.TID 0000.0001) PTRACERS_diffKh = /* Laplacian Diffusivity */
(PID.TID 0000.0001)                 0.000000000000000E+00
(PID.TID 0000.0001)     ;
(PID.TID 0000.0001) PTRACERS_diffK4 = /* Biharmonic Diffusivity */
(PID.TID 0000.0001)                 0.000000000000000E+00
(PID.TID 0000.0001)     ;
(PID.TID 0000.0001) PTRACERS_diffKrNr = /* Vertical Diffusivity */
(PID.TID 0000.0001)    15 @  1.000000000000000E-05              /* K =  1: 15 */
(PID.TID 0000.0001)     ;
(PID.TID 0000.0001) PTRACERS_useGMRedi = /* apply GM-Redi */
(PID.TID 0000.0001)                   T
(PID.TID 0000.0001)     ;
(PID.TID 0000.0001) PTRACERS_useDWNSLP = /* apply DOWN-SLOPE Flow */
(PID.TID 0000.0001)                   F
(PID.TID 0000.0001)     ;
(PID.TID 0000.0001) PTRACERS_useKPP = /* apply KPP scheme */
(PID.TID 0000.0001)                   F
(PID.TID 0000.0001)     ;
(PID.TID 0000.0001) PTRACERS_ref = /* Reference vertical profile */
(PID.TID 0000.0001)    15 @  0.000000000000000E+00              /* K =  1: 15 */
(PID.TID 0000.0001)     ;
(PID.TID 0000.0001) PTRACERS_EvPrRn =/* tracer conc. in Evap. & Rain */
(PID.TID 0000.0001)                 1.234567000000000E+05
(PID.TID 0000.0001)     ;
(PID.TID 0000.0001)  -----------------------------------
(PID.TID 0000.0001)  tracer number :  100
(PID.TID 0000.0001) PTRACERS_names = /* Tracer short name */
(PID.TID 0000.0001)               'n28'
(PID.TID 0000.0001)     ;
(PID.TID 0000.0001) PTRACERS_long_names = /* Tracer long name */
(PID.TID 0000.0001)               ''
(PID.TID 0000.0001)     ;
(PID.TID 0000.0001) PTRACERS_ioLabel = /* tracer IO Label */
(PID.TID 0000.0001)               '0a'
(PID.TID 0000.0001)     ;
(PID.TID 0000.0001) PTRACERS_advScheme = /* Advection Scheme */
(PID.TID 0000.0001)                      33
(PID.TID 0000.0001)     ;
(PID.TID 0000.0001) PTRACERS_SOM_Advection = /* tracer uses SOM advection scheme */
(PID.TID 0000.0001)                   F
(PID.TID 0000.0001)     ;
(PID.TID 0000.0001) PTRACERS_ImplVertAdv = /* implicit vert. advection flag */
(PID.TID 0000.0001)                   F
(PID.TID 0000.0001)     ;
(PID.TID 0000.0001) PTRACERS_diffKh = /* Laplacian Diffusivity */
(PID.TID 0000.0001)                 0.000000000000000E+00
(PID.TID 0000.0001)     ;
(PID.TID 0000.0001) PTRACERS_diffK4 = /* Biharmonic Diffusivity */
(PID.TID 0000.0001)                 0.000000000000000E+00
(PID.TID 0000.0001)     ;
(PID.TID 0000.0001) PTRACERS_diffKrNr = /* Vertical Diffusivity */
(PID.TID 0000.0001)    15 @  1.000000000000000E-05              /* K =  1: 15 */
(PID.TID 0000.0001)     ;
(PID.TID 0000.0001) PTRACERS_useGMRedi = /* apply GM-Redi */
(PID.TID 0000.0001)                   T
(PID.TID 0000.0001)     ;
(PID.TID 0000.0001) PTRACERS_useDWNSLP = /* apply DOWN-SLOPE Flow */
(PID.TID 0000.0001)                   F
(PID.TID 0000.0001)     ;
(PID.TID 0000.0001) PTRACERS_useKPP = /* apply KPP scheme */
(PID.TID 0000.0001)                   F
(PID.TID 0000.0001)     ;
(PID.TID 0000.0001) PTRACERS_ref = /* Reference vertical profile */
(PID.TID 0000.0001)    15 @  0.000000000000000E+00              /* K =  1: 15 */
(PID.TID 0000.0001)     ;
(PID.TID 0000.0001) PTRACERS_EvPrRn =/* tracer conc. in Evap. & Rain */
(PID.TID 0000.0001)                 1.234567000000000E+05
(PID.TID 0000.0001)     ;
(PID.TID 0000.0001)  -----------------------------------
(PID.TID 0000.0001)  tracer number :  101
(PID.TID 0000.0001) PTRACERS_names = /* Tracer short name */
(PID.TID 0000.0001)               'n29'
(PID.TID 0000.0001)     ;
(PID.TID 0000.0001) PTRACERS_long_names = /* Tracer long name */
(PID.TID 0000.0001)               ''
(PID.TID 0000.0001)     ;
(PID.TID 0000.0001) PTRACERS_ioLabel = /* tracer IO Label */
(PID.TID 0000.0001)               '0b'
(PID.TID 0000.0001)     ;
(PID.TID 0000.0001) PTRACERS_advScheme = /* Advection Scheme */
(PID.TID 0000.0001)                      33
(PID.TID 0000.0001)     ;
(PID.TID 0000.0001) PTRACERS_SOM_Advection = /* tracer uses SOM advection scheme */
(PID.TID 0000.0001)                   F
(PID.TID 0000.0001)     ;
(PID.TID 0000.0001) PTRACERS_ImplVertAdv = /* implicit vert. advection flag */
(PID.TID 0000.0001)                   F
(PID.TID 0000.0001)     ;
(PID.TID 0000.0001) PTRACERS_diffKh = /* Laplacian Diffusivity */
(PID.TID 0000.0001)                 0.000000000000000E+00
(PID.TID 0000.0001)     ;
(PID.TID 0000.0001) PTRACERS_diffK4 = /* Biharmonic Diffusivity */
(PID.TID 0000.0001)                 0.000000000000000E+00
(PID.TID 0000.0001)     ;
(PID.TID 0000.0001) PTRACERS_diffKrNr = /* Vertical Diffusivity */
(PID.TID 0000.0001)    15 @  1.000000000000000E-05              /* K =  1: 15 */
(PID.TID 0000.0001)     ;
(PID.TID 0000.0001) PTRACERS_useGMRedi = /* apply GM-Redi */
(PID.TID 0000.0001)                   T
(PID.TID 0000.0001)     ;
(PID.TID 0000.0001) PTRACERS_useDWNSLP = /* apply DOWN-SLOPE Flow */
(PID.TID 0000.0001)                   F
(PID.TID 0000.0001)     ;
(PID.TID 0000.0001) PTRACERS_useKPP = /* apply KPP scheme */
(PID.TID 0000.0001)                   F
(PID.TID 0000.0001)     ;
(PID.TID 0000.0001) PTRACERS_ref = /* Reference vertical profile */
(PID.TID 0000.0001)    15 @  0.000000000000000E+00              /* K =  1: 15 */
(PID.TID 0000.0001)     ;
(PID.TID 0000.0001) PTRACERS_EvPrRn =/* tracer conc. in Evap. & Rain */
(PID.TID 0000.0001)                 1.234567000000000E+05
(PID.TID 0000.0001)     ;
(PID.TID 0000.0001)  -----------------------------------
(PID.TID 0000.0001)  tracer number :  102
(PID.TID 0000.0001) PTRACERS_names = /* Tracer short name */
(PID.TID 0000.0001)               'n30'
(PID.TID 0000.0001)     ;
(PID.TID 0000.0001) PTRACERS_long_names = /* Tracer long name */
(PID.TID 0000.0001)               ''
(PID.TID 0000.0001)     ;
(PID.TID 0000.0001) PTRACERS_ioLabel = /* tracer IO Label */
(PID.TID 0000.0001)               '0c'
(PID.TID 0000.0001)     ;
(PID.TID 0000.0001) PTRACERS_advScheme = /* Advection Scheme */
(PID.TID 0000.0001)                      33
(PID.TID 0000.0001)     ;
(PID.TID 0000.0001) PTRACERS_SOM_Advection = /* tracer uses SOM advection scheme */
(PID.TID 0000.0001)                   F
(PID.TID 0000.0001)     ;
(PID.TID 0000.0001) PTRACERS_ImplVertAdv = /* implicit vert. advection flag */
(PID.TID 0000.0001)                   F
(PID.TID 0000.0001)     ;
(PID.TID 0000.0001) PTRACERS_diffKh = /* Laplacian Diffusivity */
(PID.TID 0000.0001)                 0.000000000000000E+00
(PID.TID 0000.0001)     ;
(PID.TID 0000.0001) PTRACERS_diffK4 = /* Biharmonic Diffusivity */
(PID.TID 0000.0001)                 0.000000000000000E+00
(PID.TID 0000.0001)     ;
(PID.TID 0000.0001) PTRACERS_diffKrNr = /* Vertical Diffusivity */
(PID.TID 0000.0001)    15 @  1.000000000000000E-05              /* K =  1: 15 */
(PID.TID 0000.0001)     ;
(PID.TID 0000.0001) PTRACERS_useGMRedi = /* apply GM-Redi */
(PID.TID 0000.0001)                   T
(PID.TID 0000.0001)     ;
(PID.TID 0000.0001) PTRACERS_useDWNSLP = /* apply DOWN-SLOPE Flow */
(PID.TID 0000.0001)                   F
(PID.TID 0000.0001)     ;
(PID.TID 0000.0001) PTRACERS_useKPP = /* apply KPP scheme */
(PID.TID 0000.0001)                   F
(PID.TID 0000.0001)     ;
(PID.TID 0000.0001) PTRACERS_ref = /* Reference vertical profile */
(PID.TID 0000.0001)    15 @  0.000000000000000E+00              /* K =  1: 15 */
(PID.TID 0000.0001)     ;
(PID.TID 0000.0001) PTRACERS_EvPrRn =/* tracer conc. in Evap. & Rain */
(PID.TID 0000.0001)                 1.234567000000000E+05
(PID.TID 0000.0001)     ;
(PID.TID 0000.0001)  -----------------------------------
(PID.TID 0000.0001)  tracer number :  103
(PID.TID 0000.0001) PTRACERS_names = /* Tracer short name */
(PID.TID 0000.0001)               'n31'
(PID.TID 0000.0001)     ;
(PID.TID 0000.0001) PTRACERS_long_names = /* Tracer long name */
(PID.TID 0000.0001)               ''
(PID.TID 0000.0001)     ;
(PID.TID 0000.0001) PTRACERS_ioLabel = /* tracer IO Label */
(PID.TID 0000.0001)               '0d'
(PID.TID 0000.0001)     ;
(PID.TID 0000.0001) PTRACERS_advScheme = /* Advection Scheme */
(PID.TID 0000.0001)                      33
(PID.TID 0000.0001)     ;
(PID.TID 0000.0001) PTRACERS_SOM_Advection = /* tracer uses SOM advection scheme */
(PID.TID 0000.0001)                   F
(PID.TID 0000.0001)     ;
(PID.TID 0000.0001) PTRACERS_ImplVertAdv = /* implicit vert. advection flag */
(PID.TID 0000.0001)                   F
(PID.TID 0000.0001)     ;
(PID.TID 0000.0001) PTRACERS_diffKh = /* Laplacian Diffusivity */
(PID.TID 0000.0001)                 0.000000000000000E+00
(PID.TID 0000.0001)     ;
(PID.TID 0000.0001) PTRACERS_diffK4 = /* Biharmonic Diffusivity */
(PID.TID 0000.0001)                 0.000000000000000E+00
(PID.TID 0000.0001)     ;
(PID.TID 0000.0001) PTRACERS_diffKrNr = /* Vertical Diffusivity */
(PID.TID 0000.0001)    15 @  1.000000000000000E-05              /* K =  1: 15 */
(PID.TID 0000.0001)     ;
(PID.TID 0000.0001) PTRACERS_useGMRedi = /* apply GM-Redi */
(PID.TID 0000.0001)                   T
(PID.TID 0000.0001)     ;
(PID.TID 0000.0001) PTRACERS_useDWNSLP = /* apply DOWN-SLOPE Flow */
(PID.TID 0000.0001)                   F
(PID.TID 0000.0001)     ;
(PID.TID 0000.0001) PTRACERS_useKPP = /* apply KPP scheme */
(PID.TID 0000.0001)                   F
(PID.TID 0000.0001)     ;
(PID.TID 0000.0001) PTRACERS_ref = /* Reference vertical profile */
(PID.TID 0000.0001)    15 @  0.000000000000000E+00              /* K =  1: 15 */
(PID.TID 0000.0001)     ;
(PID.TID 0000.0001) PTRACERS_EvPrRn =/* tracer conc. in Evap. & Rain */
(PID.TID 0000.0001)                 1.234567000000000E+05
(PID.TID 0000.0001)     ;
(PID.TID 0000.0001)  -----------------------------------
(PID.TID 0000.0001)  tracer number :  104
(PID.TID 0000.0001) PTRACERS_names = /* Tracer short name */
(PID.TID 0000.0001)               'n32'
(PID.TID 0000.0001)     ;
(PID.TID 0000.0001) PTRACERS_long_names = /* Tracer long name */
(PID.TID 0000.0001)               ''
(PID.TID 0000.0001)     ;
(PID.TID 0000.0001) PTRACERS_ioLabel = /* tracer IO Label */
(PID.TID 0000.0001)               '0e'
(PID.TID 0000.0001)     ;
(PID.TID 0000.0001) PTRACERS_advScheme = /* Advection Scheme */
(PID.TID 0000.0001)                      33
(PID.TID 0000.0001)     ;
(PID.TID 0000.0001) PTRACERS_SOM_Advection = /* tracer uses SOM advection scheme */
(PID.TID 0000.0001)                   F
(PID.TID 0000.0001)     ;
(PID.TID 0000.0001) PTRACERS_ImplVertAdv = /* implicit vert. advection flag */
(PID.TID 0000.0001)                   F
(PID.TID 0000.0001)     ;
(PID.TID 0000.0001) PTRACERS_diffKh = /* Laplacian Diffusivity */
(PID.TID 0000.0001)                 0.000000000000000E+00
(PID.TID 0000.0001)     ;
(PID.TID 0000.0001) PTRACERS_diffK4 = /* Biharmonic Diffusivity */
(PID.TID 0000.0001)                 0.000000000000000E+00
(PID.TID 0000.0001)     ;
(PID.TID 0000.0001) PTRACERS_diffKrNr = /* Vertical Diffusivity */
(PID.TID 0000.0001)    15 @  1.000000000000000E-05              /* K =  1: 15 */
(PID.TID 0000.0001)     ;
(PID.TID 0000.0001) PTRACERS_useGMRedi = /* apply GM-Redi */
(PID.TID 0000.0001)                   T
(PID.TID 0000.0001)     ;
(PID.TID 0000.0001) PTRACERS_useDWNSLP = /* apply DOWN-SLOPE Flow */
(PID.TID 0000.0001)                   F
(PID.TID 0000.0001)     ;
(PID.TID 0000.0001) PTRACERS_useKPP = /* apply KPP scheme */
(PID.TID 0000.0001)                   F
(PID.TID 0000.0001)     ;
(PID.TID 0000.0001) PTRACERS_ref = /* Reference vertical profile */
(PID.TID 0000.0001)    15 @  0.000000000000000E+00              /* K =  1: 15 */
(PID.TID 0000.0001)     ;
(PID.TID 0000.0001) PTRACERS_EvPrRn =/* tracer conc. in Evap. & Rain */
(PID.TID 0000.0001)                 1.234567000000000E+05
(PID.TID 0000.0001)     ;
(PID.TID 0000.0001)  -----------------------------------
(PID.TID 0000.0001)  tracer number :  105
(PID.TID 0000.0001) PTRACERS_names = /* Tracer short name */
(PID.TID 0000.0001)               'n33'
(PID.TID 0000.0001)     ;
(PID.TID 0000.0001) PTRACERS_long_names = /* Tracer long name */
(PID.TID 0000.0001)               ''
(PID.TID 0000.0001)     ;
(PID.TID 0000.0001) PTRACERS_ioLabel = /* tracer IO Label */
(PID.TID 0000.0001)               '0f'
(PID.TID 0000.0001)     ;
(PID.TID 0000.0001) PTRACERS_advScheme = /* Advection Scheme */
(PID.TID 0000.0001)                      33
(PID.TID 0000.0001)     ;
(PID.TID 0000.0001) PTRACERS_SOM_Advection = /* tracer uses SOM advection scheme */
(PID.TID 0000.0001)                   F
(PID.TID 0000.0001)     ;
(PID.TID 0000.0001) PTRACERS_ImplVertAdv = /* implicit vert. advection flag */
(PID.TID 0000.0001)                   F
(PID.TID 0000.0001)     ;
(PID.TID 0000.0001) PTRACERS_diffKh = /* Laplacian Diffusivity */
(PID.TID 0000.0001)                 0.000000000000000E+00
(PID.TID 0000.0001)     ;
(PID.TID 0000.0001) PTRACERS_diffK4 = /* Biharmonic Diffusivity */
(PID.TID 0000.0001)                 0.000000000000000E+00
(PID.TID 0000.0001)     ;
(PID.TID 0000.0001) PTRACERS_diffKrNr = /* Vertical Diffusivity */
(PID.TID 0000.0001)    15 @  1.000000000000000E-05              /* K =  1: 15 */
(PID.TID 0000.0001)     ;
(PID.TID 0000.0001) PTRACERS_useGMRedi = /* apply GM-Redi */
(PID.TID 0000.0001)                   T
(PID.TID 0000.0001)     ;
(PID.TID 0000.0001) PTRACERS_useDWNSLP = /* apply DOWN-SLOPE Flow */
(PID.TID 0000.0001)                   F
(PID.TID 0000.0001)     ;
(PID.TID 0000.0001) PTRACERS_useKPP = /* apply KPP scheme */
(PID.TID 0000.0001)                   F
(PID.TID 0000.0001)     ;
(PID.TID 0000.0001) PTRACERS_ref = /* Reference vertical profile */
(PID.TID 0000.0001)    15 @  0.000000000000000E+00              /* K =  1: 15 */
(PID.TID 0000.0001)     ;
(PID.TID 0000.0001) PTRACERS_EvPrRn =/* tracer conc. in Evap. & Rain */
(PID.TID 0000.0001)                 1.234567000000000E+05
(PID.TID 0000.0001)     ;
(PID.TID 0000.0001)  -----------------------------------
(PID.TID 0000.0001)  tracer number :  106
(PID.TID 0000.0001) PTRACERS_names = /* Tracer short name */
(PID.TID 0000.0001)               'n34'
(PID.TID 0000.0001)     ;
(PID.TID 0000.0001) PTRACERS_long_names = /* Tracer long name */
(PID.TID 0000.0001)               ''
(PID.TID 0000.0001)     ;
(PID.TID 0000.0001) PTRACERS_ioLabel = /* tracer IO Label */
(PID.TID 0000.0001)               '0g'
(PID.TID 0000.0001)     ;
(PID.TID 0000.0001) PTRACERS_advScheme = /* Advection Scheme */
(PID.TID 0000.0001)                      33
(PID.TID 0000.0001)     ;
(PID.TID 0000.0001) PTRACERS_SOM_Advection = /* tracer uses SOM advection scheme */
(PID.TID 0000.0001)                   F
(PID.TID 0000.0001)     ;
(PID.TID 0000.0001) PTRACERS_ImplVertAdv = /* implicit vert. advection flag */
(PID.TID 0000.0001)                   F
(PID.TID 0000.0001)     ;
(PID.TID 0000.0001) PTRACERS_diffKh = /* Laplacian Diffusivity */
(PID.TID 0000.0001)                 0.000000000000000E+00
(PID.TID 0000.0001)     ;
(PID.TID 0000.0001) PTRACERS_diffK4 = /* Biharmonic Diffusivity */
(PID.TID 0000.0001)                 0.000000000000000E+00
(PID.TID 0000.0001)     ;
(PID.TID 0000.0001) PTRACERS_diffKrNr = /* Vertical Diffusivity */
(PID.TID 0000.0001)    15 @  1.000000000000000E-05              /* K =  1: 15 */
(PID.TID 0000.0001)     ;
(PID.TID 0000.0001) PTRACERS_useGMRedi = /* apply GM-Redi */
(PID.TID 0000.0001)                   T
(PID.TID 0000.0001)     ;
(PID.TID 0000.0001) PTRACERS_useDWNSLP = /* apply DOWN-SLOPE Flow */
(PID.TID 0000.0001)                   F
(PID.TID 0000.0001)     ;
(PID.TID 0000.0001) PTRACERS_useKPP = /* apply KPP scheme */
(PID.TID 0000.0001)                   F
(PID.TID 0000.0001)     ;
(PID.TID 0000.0001) PTRACERS_ref = /* Reference vertical profile */
(PID.TID 0000.0001)    15 @  0.000000000000000E+00              /* K =  1: 15 */
(PID.TID 0000.0001)     ;
(PID.TID 0000.0001) PTRACERS_EvPrRn =/* tracer conc. in Evap. & Rain */
(PID.TID 0000.0001)                 1.234567000000000E+05
(PID.TID 0000.0001)     ;
(PID.TID 0000.0001)  -----------------------------------
(PID.TID 0000.0001)  tracer number :  107
(PID.TID 0000.0001) PTRACERS_names = /* Tracer short name */
(PID.TID 0000.0001)               'n35'
(PID.TID 0000.0001)     ;
(PID.TID 0000.0001) PTRACERS_long_names = /* Tracer long name */
(PID.TID 0000.0001)               ''
(PID.TID 0000.0001)     ;
(PID.TID 0000.0001) PTRACERS_ioLabel = /* tracer IO Label */
(PID.TID 0000.0001)               '0h'
(PID.TID 0000.0001)     ;
(PID.TID 0000.0001) PTRACERS_advScheme = /* Advection Scheme */
(PID.TID 0000.0001)                      33
(PID.TID 0000.0001)     ;
(PID.TID 0000.0001) PTRACERS_SOM_Advection = /* tracer uses SOM advection scheme */
(PID.TID 0000.0001)                   F
(PID.TID 0000.0001)     ;
(PID.TID 0000.0001) PTRACERS_ImplVertAdv = /* implicit vert. advection flag */
(PID.TID 0000.0001)                   F
(PID.TID 0000.0001)     ;
(PID.TID 0000.0001) PTRACERS_diffKh = /* Laplacian Diffusivity */
(PID.TID 0000.0001)                 0.000000000000000E+00
(PID.TID 0000.0001)     ;
(PID.TID 0000.0001) PTRACERS_diffK4 = /* Biharmonic Diffusivity */
(PID.TID 0000.0001)                 0.000000000000000E+00
(PID.TID 0000.0001)     ;
(PID.TID 0000.0001) PTRACERS_diffKrNr = /* Vertical Diffusivity */
(PID.TID 0000.0001)    15 @  1.000000000000000E-05              /* K =  1: 15 */
(PID.TID 0000.0001)     ;
(PID.TID 0000.0001) PTRACERS_useGMRedi = /* apply GM-Redi */
(PID.TID 0000.0001)                   T
(PID.TID 0000.0001)     ;
(PID.TID 0000.0001) PTRACERS_useDWNSLP = /* apply DOWN-SLOPE Flow */
(PID.TID 0000.0001)                   F
(PID.TID 0000.0001)     ;
(PID.TID 0000.0001) PTRACERS_useKPP = /* apply KPP scheme */
(PID.TID 0000.0001)                   F
(PID.TID 0000.0001)     ;
(PID.TID 0000.0001) PTRACERS_ref = /* Reference vertical profile */
(PID.TID 0000.0001)    15 @  0.000000000000000E+00              /* K =  1: 15 */
(PID.TID 0000.0001)     ;
(PID.TID 0000.0001) PTRACERS_EvPrRn =/* tracer conc. in Evap. & Rain */
(PID.TID 0000.0001)                 1.234567000000000E+05
(PID.TID 0000.0001)     ;
(PID.TID 0000.0001)  -----------------------------------
(PID.TID 0000.0001)  tracer number :  108
(PID.TID 0000.0001) PTRACERS_names = /* Tracer short name */
(PID.TID 0000.0001)               'n36'
(PID.TID 0000.0001)     ;
(PID.TID 0000.0001) PTRACERS_long_names = /* Tracer long name */
(PID.TID 0000.0001)               ''
(PID.TID 0000.0001)     ;
(PID.TID 0000.0001) PTRACERS_ioLabel = /* tracer IO Label */
(PID.TID 0000.0001)               '0i'
(PID.TID 0000.0001)     ;
(PID.TID 0000.0001) PTRACERS_advScheme = /* Advection Scheme */
(PID.TID 0000.0001)                      33
(PID.TID 0000.0001)     ;
(PID.TID 0000.0001) PTRACERS_SOM_Advection = /* tracer uses SOM advection scheme */
(PID.TID 0000.0001)                   F
(PID.TID 0000.0001)     ;
(PID.TID 0000.0001) PTRACERS_ImplVertAdv = /* implicit vert. advection flag */
(PID.TID 0000.0001)                   F
(PID.TID 0000.0001)     ;
(PID.TID 0000.0001) PTRACERS_diffKh = /* Laplacian Diffusivity */
(PID.TID 0000.0001)                 0.000000000000000E+00
(PID.TID 0000.0001)     ;
(PID.TID 0000.0001) PTRACERS_diffK4 = /* Biharmonic Diffusivity */
(PID.TID 0000.0001)                 0.000000000000000E+00
(PID.TID 0000.0001)     ;
(PID.TID 0000.0001) PTRACERS_diffKrNr = /* Vertical Diffusivity */
(PID.TID 0000.0001)    15 @  1.000000000000000E-05              /* K =  1: 15 */
(PID.TID 0000.0001)     ;
(PID.TID 0000.0001) PTRACERS_useGMRedi = /* apply GM-Redi */
(PID.TID 0000.0001)                   T
(PID.TID 0000.0001)     ;
(PID.TID 0000.0001) PTRACERS_useDWNSLP = /* apply DOWN-SLOPE Flow */
(PID.TID 0000.0001)                   F
(PID.TID 0000.0001)     ;
(PID.TID 0000.0001) PTRACERS_useKPP = /* apply KPP scheme */
(PID.TID 0000.0001)                   F
(PID.TID 0000.0001)     ;
(PID.TID 0000.0001) PTRACERS_ref = /* Reference vertical profile */
(PID.TID 0000.0001)    15 @  0.000000000000000E+00              /* K =  1: 15 */
(PID.TID 0000.0001)     ;
(PID.TID 0000.0001) PTRACERS_EvPrRn =/* tracer conc. in Evap. & Rain */
(PID.TID 0000.0001)                 1.234567000000000E+05
(PID.TID 0000.0001)     ;
(PID.TID 0000.0001)  -----------------------------------
(PID.TID 0000.0001)  tracer number :  109
(PID.TID 0000.0001) PTRACERS_names = /* Tracer short name */
(PID.TID 0000.0001)               'n37'
(PID.TID 0000.0001)     ;
(PID.TID 0000.0001) PTRACERS_long_names = /* Tracer long name */
(PID.TID 0000.0001)               ''
(PID.TID 0000.0001)     ;
(PID.TID 0000.0001) PTRACERS_ioLabel = /* tracer IO Label */
(PID.TID 0000.0001)               '0j'
(PID.TID 0000.0001)     ;
(PID.TID 0000.0001) PTRACERS_advScheme = /* Advection Scheme */
(PID.TID 0000.0001)                      33
(PID.TID 0000.0001)     ;
(PID.TID 0000.0001) PTRACERS_SOM_Advection = /* tracer uses SOM advection scheme */
(PID.TID 0000.0001)                   F
(PID.TID 0000.0001)     ;
(PID.TID 0000.0001) PTRACERS_ImplVertAdv = /* implicit vert. advection flag */
(PID.TID 0000.0001)                   F
(PID.TID 0000.0001)     ;
(PID.TID 0000.0001) PTRACERS_diffKh = /* Laplacian Diffusivity */
(PID.TID 0000.0001)                 0.000000000000000E+00
(PID.TID 0000.0001)     ;
(PID.TID 0000.0001) PTRACERS_diffK4 = /* Biharmonic Diffusivity */
(PID.TID 0000.0001)                 0.000000000000000E+00
(PID.TID 0000.0001)     ;
(PID.TID 0000.0001) PTRACERS_diffKrNr = /* Vertical Diffusivity */
(PID.TID 0000.0001)    15 @  1.000000000000000E-05              /* K =  1: 15 */
(PID.TID 0000.0001)     ;
(PID.TID 0000.0001) PTRACERS_useGMRedi = /* apply GM-Redi */
(PID.TID 0000.0001)                   T
(PID.TID 0000.0001)     ;
(PID.TID 0000.0001) PTRACERS_useDWNSLP = /* apply DOWN-SLOPE Flow */
(PID.TID 0000.0001)                   F
(PID.TID 0000.0001)     ;
(PID.TID 0000.0001) PTRACERS_useKPP = /* apply KPP scheme */
(PID.TID 0000.0001)                   F
(PID.TID 0000.0001)     ;
(PID.TID 0000.0001) PTRACERS_ref = /* Reference vertical profile */
(PID.TID 0000.0001)    15 @  0.000000000000000E+00              /* K =  1: 15 */
(PID.TID 0000.0001)     ;
(PID.TID 0000.0001) PTRACERS_EvPrRn =/* tracer conc. in Evap. & Rain */
(PID.TID 0000.0001)                 1.234567000000000E+05
(PID.TID 0000.0001)     ;
(PID.TID 0000.0001)  -----------------------------------
(PID.TID 0000.0001)  tracer number :  110
(PID.TID 0000.0001) PTRACERS_names = /* Tracer short name */
(PID.TID 0000.0001)               'n38'
(PID.TID 0000.0001)     ;
(PID.TID 0000.0001) PTRACERS_long_names = /* Tracer long name */
(PID.TID 0000.0001)               ''
(PID.TID 0000.0001)     ;
(PID.TID 0000.0001) PTRACERS_ioLabel = /* tracer IO Label */
(PID.TID 0000.0001)               '0k'
(PID.TID 0000.0001)     ;
(PID.TID 0000.0001) PTRACERS_advScheme = /* Advection Scheme */
(PID.TID 0000.0001)                      33
(PID.TID 0000.0001)     ;
(PID.TID 0000.0001) PTRACERS_SOM_Advection = /* tracer uses SOM advection scheme */
(PID.TID 0000.0001)                   F
(PID.TID 0000.0001)     ;
(PID.TID 0000.0001) PTRACERS_ImplVertAdv = /* implicit vert. advection flag */
(PID.TID 0000.0001)                   F
(PID.TID 0000.0001)     ;
(PID.TID 0000.0001) PTRACERS_diffKh = /* Laplacian Diffusivity */
(PID.TID 0000.0001)                 0.000000000000000E+00
(PID.TID 0000.0001)     ;
(PID.TID 0000.0001) PTRACERS_diffK4 = /* Biharmonic Diffusivity */
(PID.TID 0000.0001)                 0.000000000000000E+00
(PID.TID 0000.0001)     ;
(PID.TID 0000.0001) PTRACERS_diffKrNr = /* Vertical Diffusivity */
(PID.TID 0000.0001)    15 @  1.000000000000000E-05              /* K =  1: 15 */
(PID.TID 0000.0001)     ;
(PID.TID 0000.0001) PTRACERS_useGMRedi = /* apply GM-Redi */
(PID.TID 0000.0001)                   T
(PID.TID 0000.0001)     ;
(PID.TID 0000.0001) PTRACERS_useDWNSLP = /* apply DOWN-SLOPE Flow */
(PID.TID 0000.0001)                   F
(PID.TID 0000.0001)     ;
(PID.TID 0000.0001) PTRACERS_useKPP = /* apply KPP scheme */
(PID.TID 0000.0001)                   F
(PID.TID 0000.0001)     ;
(PID.TID 0000.0001) PTRACERS_ref = /* Reference vertical profile */
(PID.TID 0000.0001)    15 @  0.000000000000000E+00              /* K =  1: 15 */
(PID.TID 0000.0001)     ;
(PID.TID 0000.0001) PTRACERS_EvPrRn =/* tracer conc. in Evap. & Rain */
(PID.TID 0000.0001)                 1.234567000000000E+05
(PID.TID 0000.0001)     ;
(PID.TID 0000.0001)  -----------------------------------
(PID.TID 0000.0001)  tracer number :  111
(PID.TID 0000.0001) PTRACERS_names = /* Tracer short name */
(PID.TID 0000.0001)               'n39'
(PID.TID 0000.0001)     ;
(PID.TID 0000.0001) PTRACERS_long_names = /* Tracer long name */
(PID.TID 0000.0001)               ''
(PID.TID 0000.0001)     ;
(PID.TID 0000.0001) PTRACERS_ioLabel = /* tracer IO Label */
(PID.TID 0000.0001)               '0l'
(PID.TID 0000.0001)     ;
(PID.TID 0000.0001) PTRACERS_advScheme = /* Advection Scheme */
(PID.TID 0000.0001)                      33
(PID.TID 0000.0001)     ;
(PID.TID 0000.0001) PTRACERS_SOM_Advection = /* tracer uses SOM advection scheme */
(PID.TID 0000.0001)                   F
(PID.TID 0000.0001)     ;
(PID.TID 0000.0001) PTRACERS_ImplVertAdv = /* implicit vert. advection flag */
(PID.TID 0000.0001)                   F
(PID.TID 0000.0001)     ;
(PID.TID 0000.0001) PTRACERS_diffKh = /* Laplacian Diffusivity */
(PID.TID 0000.0001)                 0.000000000000000E+00
(PID.TID 0000.0001)     ;
(PID.TID 0000.0001) PTRACERS_diffK4 = /* Biharmonic Diffusivity */
(PID.TID 0000.0001)                 0.000000000000000E+00
(PID.TID 0000.0001)     ;
(PID.TID 0000.0001) PTRACERS_diffKrNr = /* Vertical Diffusivity */
(PID.TID 0000.0001)    15 @  1.000000000000000E-05              /* K =  1: 15 */
(PID.TID 0000.0001)     ;
(PID.TID 0000.0001) PTRACERS_useGMRedi = /* apply GM-Redi */
(PID.TID 0000.0001)                   T
(PID.TID 0000.0001)     ;
(PID.TID 0000.0001) PTRACERS_useDWNSLP = /* apply DOWN-SLOPE Flow */
(PID.TID 0000.0001)                   F
(PID.TID 0000.0001)     ;
(PID.TID 0000.0001) PTRACERS_useKPP = /* apply KPP scheme */
(PID.TID 0000.0001)                   F
(PID.TID 0000.0001)     ;
(PID.TID 0000.0001) PTRACERS_ref = /* Reference vertical profile */
(PID.TID 0000.0001)    15 @  0.000000000000000E+00              /* K =  1: 15 */
(PID.TID 0000.0001)     ;
(PID.TID 0000.0001) PTRACERS_EvPrRn =/* tracer conc. in Evap. & Rain */
(PID.TID 0000.0001)                 1.234567000000000E+05
(PID.TID 0000.0001)     ;
(PID.TID 0000.0001)  -----------------------------------
(PID.TID 0000.0001)  tracer number :  112
(PID.TID 0000.0001) PTRACERS_names = /* Tracer short name */
(PID.TID 0000.0001)               'n40'
(PID.TID 0000.0001)     ;
(PID.TID 0000.0001) PTRACERS_long_names = /* Tracer long name */
(PID.TID 0000.0001)               ''
(PID.TID 0000.0001)     ;
(PID.TID 0000.0001) PTRACERS_ioLabel = /* tracer IO Label */
(PID.TID 0000.0001)               '0m'
(PID.TID 0000.0001)     ;
(PID.TID 0000.0001) PTRACERS_advScheme = /* Advection Scheme */
(PID.TID 0000.0001)                      33
(PID.TID 0000.0001)     ;
(PID.TID 0000.0001) PTRACERS_SOM_Advection = /* tracer uses SOM advection scheme */
(PID.TID 0000.0001)                   F
(PID.TID 0000.0001)     ;
(PID.TID 0000.0001) PTRACERS_ImplVertAdv = /* implicit vert. advection flag */
(PID.TID 0000.0001)                   F
(PID.TID 0000.0001)     ;
(PID.TID 0000.0001) PTRACERS_diffKh = /* Laplacian Diffusivity */
(PID.TID 0000.0001)                 0.000000000000000E+00
(PID.TID 0000.0001)     ;
(PID.TID 0000.0001) PTRACERS_diffK4 = /* Biharmonic Diffusivity */
(PID.TID 0000.0001)                 0.000000000000000E+00
(PID.TID 0000.0001)     ;
(PID.TID 0000.0001) PTRACERS_diffKrNr = /* Vertical Diffusivity */
(PID.TID 0000.0001)    15 @  1.000000000000000E-05              /* K =  1: 15 */
(PID.TID 0000.0001)     ;
(PID.TID 0000.0001) PTRACERS_useGMRedi = /* apply GM-Redi */
(PID.TID 0000.0001)                   T
(PID.TID 0000.0001)     ;
(PID.TID 0000.0001) PTRACERS_useDWNSLP = /* apply DOWN-SLOPE Flow */
(PID.TID 0000.0001)                   F
(PID.TID 0000.0001)     ;
(PID.TID 0000.0001) PTRACERS_useKPP = /* apply KPP scheme */
(PID.TID 0000.0001)                   F
(PID.TID 0000.0001)     ;
(PID.TID 0000.0001) PTRACERS_ref = /* Reference vertical profile */
(PID.TID 0000.0001)    15 @  0.000000000000000E+00              /* K =  1: 15 */
(PID.TID 0000.0001)     ;
(PID.TID 0000.0001) PTRACERS_EvPrRn =/* tracer conc. in Evap. & Rain */
(PID.TID 0000.0001)                 1.234567000000000E+05
(PID.TID 0000.0001)     ;
(PID.TID 0000.0001)  -----------------------------------
(PID.TID 0000.0001)  tracer number :  113
(PID.TID 0000.0001) PTRACERS_names = /* Tracer short name */
(PID.TID 0000.0001)               'n41'
(PID.TID 0000.0001)     ;
(PID.TID 0000.0001) PTRACERS_long_names = /* Tracer long name */
(PID.TID 0000.0001)               ''
(PID.TID 0000.0001)     ;
(PID.TID 0000.0001) PTRACERS_ioLabel = /* tracer IO Label */
(PID.TID 0000.0001)               '0n'
(PID.TID 0000.0001)     ;
(PID.TID 0000.0001) PTRACERS_advScheme = /* Advection Scheme */
(PID.TID 0000.0001)                      33
(PID.TID 0000.0001)     ;
(PID.TID 0000.0001) PTRACERS_SOM_Advection = /* tracer uses SOM advection scheme */
(PID.TID 0000.0001)                   F
(PID.TID 0000.0001)     ;
(PID.TID 0000.0001) PTRACERS_ImplVertAdv = /* implicit vert. advection flag */
(PID.TID 0000.0001)                   F
(PID.TID 0000.0001)     ;
(PID.TID 0000.0001) PTRACERS_diffKh = /* Laplacian Diffusivity */
(PID.TID 0000.0001)                 0.000000000000000E+00
(PID.TID 0000.0001)     ;
(PID.TID 0000.0001) PTRACERS_diffK4 = /* Biharmonic Diffusivity */
(PID.TID 0000.0001)                 0.000000000000000E+00
(PID.TID 0000.0001)     ;
(PID.TID 0000.0001) PTRACERS_diffKrNr = /* Vertical Diffusivity */
(PID.TID 0000.0001)    15 @  1.000000000000000E-05              /* K =  1: 15 */
(PID.TID 0000.0001)     ;
(PID.TID 0000.0001) PTRACERS_useGMRedi = /* apply GM-Redi */
(PID.TID 0000.0001)                   T
(PID.TID 0000.0001)     ;
(PID.TID 0000.0001) PTRACERS_useDWNSLP = /* apply DOWN-SLOPE Flow */
(PID.TID 0000.0001)                   F
(PID.TID 0000.0001)     ;
(PID.TID 0000.0001) PTRACERS_useKPP = /* apply KPP scheme */
(PID.TID 0000.0001)                   F
(PID.TID 0000.0001)     ;
(PID.TID 0000.0001) PTRACERS_ref = /* Reference vertical profile */
(PID.TID 0000.0001)    15 @  0.000000000000000E+00              /* K =  1: 15 */
(PID.TID 0000.0001)     ;
(PID.TID 0000.0001) PTRACERS_EvPrRn =/* tracer conc. in Evap. & Rain */
(PID.TID 0000.0001)                 1.234567000000000E+05
(PID.TID 0000.0001)     ;
(PID.TID 0000.0001)  -----------------------------------
(PID.TID 0000.0001)  tracer number :  114
(PID.TID 0000.0001) PTRACERS_names = /* Tracer short name */
(PID.TID 0000.0001)               'n42'
(PID.TID 0000.0001)     ;
(PID.TID 0000.0001) PTRACERS_long_names = /* Tracer long name */
(PID.TID 0000.0001)               ''
(PID.TID 0000.0001)     ;
(PID.TID 0000.0001) PTRACERS_ioLabel = /* tracer IO Label */
(PID.TID 0000.0001)               '0o'
(PID.TID 0000.0001)     ;
(PID.TID 0000.0001) PTRACERS_advScheme = /* Advection Scheme */
(PID.TID 0000.0001)                      33
(PID.TID 0000.0001)     ;
(PID.TID 0000.0001) PTRACERS_SOM_Advection = /* tracer uses SOM advection scheme */
(PID.TID 0000.0001)                   F
(PID.TID 0000.0001)     ;
(PID.TID 0000.0001) PTRACERS_ImplVertAdv = /* implicit vert. advection flag */
(PID.TID 0000.0001)                   F
(PID.TID 0000.0001)     ;
(PID.TID 0000.0001) PTRACERS_diffKh = /* Laplacian Diffusivity */
(PID.TID 0000.0001)                 0.000000000000000E+00
(PID.TID 0000.0001)     ;
(PID.TID 0000.0001) PTRACERS_diffK4 = /* Biharmonic Diffusivity */
(PID.TID 0000.0001)                 0.000000000000000E+00
(PID.TID 0000.0001)     ;
(PID.TID 0000.0001) PTRACERS_diffKrNr = /* Vertical Diffusivity */
(PID.TID 0000.0001)    15 @  1.000000000000000E-05              /* K =  1: 15 */
(PID.TID 0000.0001)     ;
(PID.TID 0000.0001) PTRACERS_useGMRedi = /* apply GM-Redi */
(PID.TID 0000.0001)                   T
(PID.TID 0000.0001)     ;
(PID.TID 0000.0001) PTRACERS_useDWNSLP = /* apply DOWN-SLOPE Flow */
(PID.TID 0000.0001)                   F
(PID.TID 0000.0001)     ;
(PID.TID 0000.0001) PTRACERS_useKPP = /* apply KPP scheme */
(PID.TID 0000.0001)                   F
(PID.TID 0000.0001)     ;
(PID.TID 0000.0001) PTRACERS_ref = /* Reference vertical profile */
(PID.TID 0000.0001)    15 @  0.000000000000000E+00              /* K =  1: 15 */
(PID.TID 0000.0001)     ;
(PID.TID 0000.0001) PTRACERS_EvPrRn =/* tracer conc. in Evap. & Rain */
(PID.TID 0000.0001)                 1.234567000000000E+05
(PID.TID 0000.0001)     ;
(PID.TID 0000.0001)  -----------------------------------
(PID.TID 0000.0001)  tracer number :  115
(PID.TID 0000.0001) PTRACERS_names = /* Tracer short name */
(PID.TID 0000.0001)               'n43'
(PID.TID 0000.0001)     ;
(PID.TID 0000.0001) PTRACERS_long_names = /* Tracer long name */
(PID.TID 0000.0001)               ''
(PID.TID 0000.0001)     ;
(PID.TID 0000.0001) PTRACERS_ioLabel = /* tracer IO Label */
(PID.TID 0000.0001)               '0p'
(PID.TID 0000.0001)     ;
(PID.TID 0000.0001) PTRACERS_advScheme = /* Advection Scheme */
(PID.TID 0000.0001)                      33
(PID.TID 0000.0001)     ;
(PID.TID 0000.0001) PTRACERS_SOM_Advection = /* tracer uses SOM advection scheme */
(PID.TID 0000.0001)                   F
(PID.TID 0000.0001)     ;
(PID.TID 0000.0001) PTRACERS_ImplVertAdv = /* implicit vert. advection flag */
(PID.TID 0000.0001)                   F
(PID.TID 0000.0001)     ;
(PID.TID 0000.0001) PTRACERS_diffKh = /* Laplacian Diffusivity */
(PID.TID 0000.0001)                 0.000000000000000E+00
(PID.TID 0000.0001)     ;
(PID.TID 0000.0001) PTRACERS_diffK4 = /* Biharmonic Diffusivity */
(PID.TID 0000.0001)                 0.000000000000000E+00
(PID.TID 0000.0001)     ;
(PID.TID 0000.0001) PTRACERS_diffKrNr = /* Vertical Diffusivity */
(PID.TID 0000.0001)    15 @  1.000000000000000E-05              /* K =  1: 15 */
(PID.TID 0000.0001)     ;
(PID.TID 0000.0001) PTRACERS_useGMRedi = /* apply GM-Redi */
(PID.TID 0000.0001)                   T
(PID.TID 0000.0001)     ;
(PID.TID 0000.0001) PTRACERS_useDWNSLP = /* apply DOWN-SLOPE Flow */
(PID.TID 0000.0001)                   F
(PID.TID 0000.0001)     ;
(PID.TID 0000.0001) PTRACERS_useKPP = /* apply KPP scheme */
(PID.TID 0000.0001)                   F
(PID.TID 0000.0001)     ;
(PID.TID 0000.0001) PTRACERS_ref = /* Reference vertical profile */
(PID.TID 0000.0001)    15 @  0.000000000000000E+00              /* K =  1: 15 */
(PID.TID 0000.0001)     ;
(PID.TID 0000.0001) PTRACERS_EvPrRn =/* tracer conc. in Evap. & Rain */
(PID.TID 0000.0001)                 1.234567000000000E+05
(PID.TID 0000.0001)     ;
(PID.TID 0000.0001)  -----------------------------------
(PID.TID 0000.0001)  tracer number :  116
(PID.TID 0000.0001) PTRACERS_names = /* Tracer short name */
(PID.TID 0000.0001)               'n44'
(PID.TID 0000.0001)     ;
(PID.TID 0000.0001) PTRACERS_long_names = /* Tracer long name */
(PID.TID 0000.0001)               ''
(PID.TID 0000.0001)     ;
(PID.TID 0000.0001) PTRACERS_ioLabel = /* tracer IO Label */
(PID.TID 0000.0001)               '0q'
(PID.TID 0000.0001)     ;
(PID.TID 0000.0001) PTRACERS_advScheme = /* Advection Scheme */
(PID.TID 0000.0001)                      33
(PID.TID 0000.0001)     ;
(PID.TID 0000.0001) PTRACERS_SOM_Advection = /* tracer uses SOM advection scheme */
(PID.TID 0000.0001)                   F
(PID.TID 0000.0001)     ;
(PID.TID 0000.0001) PTRACERS_ImplVertAdv = /* implicit vert. advection flag */
(PID.TID 0000.0001)                   F
(PID.TID 0000.0001)     ;
(PID.TID 0000.0001) PTRACERS_diffKh = /* Laplacian Diffusivity */
(PID.TID 0000.0001)                 0.000000000000000E+00
(PID.TID 0000.0001)     ;
(PID.TID 0000.0001) PTRACERS_diffK4 = /* Biharmonic Diffusivity */
(PID.TID 0000.0001)                 0.000000000000000E+00
(PID.TID 0000.0001)     ;
(PID.TID 0000.0001) PTRACERS_diffKrNr = /* Vertical Diffusivity */
(PID.TID 0000.0001)    15 @  1.000000000000000E-05              /* K =  1: 15 */
(PID.TID 0000.0001)     ;
(PID.TID 0000.0001) PTRACERS_useGMRedi = /* apply GM-Redi */
(PID.TID 0000.0001)                   T
(PID.TID 0000.0001)     ;
(PID.TID 0000.0001) PTRACERS_useDWNSLP = /* apply DOWN-SLOPE Flow */
(PID.TID 0000.0001)                   F
(PID.TID 0000.0001)     ;
(PID.TID 0000.0001) PTRACERS_useKPP = /* apply KPP scheme */
(PID.TID 0000.0001)                   F
(PID.TID 0000.0001)     ;
(PID.TID 0000.0001) PTRACERS_ref = /* Reference vertical profile */
(PID.TID 0000.0001)    15 @  0.000000000000000E+00              /* K =  1: 15 */
(PID.TID 0000.0001)     ;
(PID.TID 0000.0001) PTRACERS_EvPrRn =/* tracer conc. in Evap. & Rain */
(PID.TID 0000.0001)                 1.234567000000000E+05
(PID.TID 0000.0001)     ;
(PID.TID 0000.0001)  -----------------------------------
(PID.TID 0000.0001)  tracer number :  117
(PID.TID 0000.0001) PTRACERS_names = /* Tracer short name */
(PID.TID 0000.0001)               'n45'
(PID.TID 0000.0001)     ;
(PID.TID 0000.0001) PTRACERS_long_names = /* Tracer long name */
(PID.TID 0000.0001)               ''
(PID.TID 0000.0001)     ;
(PID.TID 0000.0001) PTRACERS_ioLabel = /* tracer IO Label */
(PID.TID 0000.0001)               '0r'
(PID.TID 0000.0001)     ;
(PID.TID 0000.0001) PTRACERS_advScheme = /* Advection Scheme */
(PID.TID 0000.0001)                      33
(PID.TID 0000.0001)     ;
(PID.TID 0000.0001) PTRACERS_SOM_Advection = /* tracer uses SOM advection scheme */
(PID.TID 0000.0001)                   F
(PID.TID 0000.0001)     ;
(PID.TID 0000.0001) PTRACERS_ImplVertAdv = /* implicit vert. advection flag */
(PID.TID 0000.0001)                   F
(PID.TID 0000.0001)     ;
(PID.TID 0000.0001) PTRACERS_diffKh = /* Laplacian Diffusivity */
(PID.TID 0000.0001)                 0.000000000000000E+00
(PID.TID 0000.0001)     ;
(PID.TID 0000.0001) PTRACERS_diffK4 = /* Biharmonic Diffusivity */
(PID.TID 0000.0001)                 0.000000000000000E+00
(PID.TID 0000.0001)     ;
(PID.TID 0000.0001) PTRACERS_diffKrNr = /* Vertical Diffusivity */
(PID.TID 0000.0001)    15 @  1.000000000000000E-05              /* K =  1: 15 */
(PID.TID 0000.0001)     ;
(PID.TID 0000.0001) PTRACERS_useGMRedi = /* apply GM-Redi */
(PID.TID 0000.0001)                   T
(PID.TID 0000.0001)     ;
(PID.TID 0000.0001) PTRACERS_useDWNSLP = /* apply DOWN-SLOPE Flow */
(PID.TID 0000.0001)                   F
(PID.TID 0000.0001)     ;
(PID.TID 0000.0001) PTRACERS_useKPP = /* apply KPP scheme */
(PID.TID 0000.0001)                   F
(PID.TID 0000.0001)     ;
(PID.TID 0000.0001) PTRACERS_ref = /* Reference vertical profile */
(PID.TID 0000.0001)    15 @  0.000000000000000E+00              /* K =  1: 15 */
(PID.TID 0000.0001)     ;
(PID.TID 0000.0001) PTRACERS_EvPrRn =/* tracer conc. in Evap. & Rain */
(PID.TID 0000.0001)                 1.234567000000000E+05
(PID.TID 0000.0001)     ;
(PID.TID 0000.0001)  -----------------------------------
(PID.TID 0000.0001)  tracer number :  118
(PID.TID 0000.0001) PTRACERS_names = /* Tracer short name */
(PID.TID 0000.0001)               'n46'
(PID.TID 0000.0001)     ;
(PID.TID 0000.0001) PTRACERS_long_names = /* Tracer long name */
(PID.TID 0000.0001)               ''
(PID.TID 0000.0001)     ;
(PID.TID 0000.0001) PTRACERS_ioLabel = /* tracer IO Label */
(PID.TID 0000.0001)               '0s'
(PID.TID 0000.0001)     ;
(PID.TID 0000.0001) PTRACERS_advScheme = /* Advection Scheme */
(PID.TID 0000.0001)                      33
(PID.TID 0000.0001)     ;
(PID.TID 0000.0001) PTRACERS_SOM_Advection = /* tracer uses SOM advection scheme */
(PID.TID 0000.0001)                   F
(PID.TID 0000.0001)     ;
(PID.TID 0000.0001) PTRACERS_ImplVertAdv = /* implicit vert. advection flag */
(PID.TID 0000.0001)                   F
(PID.TID 0000.0001)     ;
(PID.TID 0000.0001) PTRACERS_diffKh = /* Laplacian Diffusivity */
(PID.TID 0000.0001)                 0.000000000000000E+00
(PID.TID 0000.0001)     ;
(PID.TID 0000.0001) PTRACERS_diffK4 = /* Biharmonic Diffusivity */
(PID.TID 0000.0001)                 0.000000000000000E+00
(PID.TID 0000.0001)     ;
(PID.TID 0000.0001) PTRACERS_diffKrNr = /* Vertical Diffusivity */
(PID.TID 0000.0001)    15 @  1.000000000000000E-05              /* K =  1: 15 */
(PID.TID 0000.0001)     ;
(PID.TID 0000.0001) PTRACERS_useGMRedi = /* apply GM-Redi */
(PID.TID 0000.0001)                   T
(PID.TID 0000.0001)     ;
(PID.TID 0000.0001) PTRACERS_useDWNSLP = /* apply DOWN-SLOPE Flow */
(PID.TID 0000.0001)                   F
(PID.TID 0000.0001)     ;
(PID.TID 0000.0001) PTRACERS_useKPP = /* apply KPP scheme */
(PID.TID 0000.0001)                   F
(PID.TID 0000.0001)     ;
(PID.TID 0000.0001) PTRACERS_ref = /* Reference vertical profile */
(PID.TID 0000.0001)    15 @  0.000000000000000E+00              /* K =  1: 15 */
(PID.TID 0000.0001)     ;
(PID.TID 0000.0001) PTRACERS_EvPrRn =/* tracer conc. in Evap. & Rain */
(PID.TID 0000.0001)                 1.234567000000000E+05
(PID.TID 0000.0001)     ;
(PID.TID 0000.0001)  -----------------------------------
(PID.TID 0000.0001)  tracer number :  119
(PID.TID 0000.0001) PTRACERS_names = /* Tracer short name */
(PID.TID 0000.0001)               'n47'
(PID.TID 0000.0001)     ;
(PID.TID 0000.0001) PTRACERS_long_names = /* Tracer long name */
(PID.TID 0000.0001)               ''
(PID.TID 0000.0001)     ;
(PID.TID 0000.0001) PTRACERS_ioLabel = /* tracer IO Label */
(PID.TID 0000.0001)               '0t'
(PID.TID 0000.0001)     ;
(PID.TID 0000.0001) PTRACERS_advScheme = /* Advection Scheme */
(PID.TID 0000.0001)                      33
(PID.TID 0000.0001)     ;
(PID.TID 0000.0001) PTRACERS_SOM_Advection = /* tracer uses SOM advection scheme */
(PID.TID 0000.0001)                   F
(PID.TID 0000.0001)     ;
(PID.TID 0000.0001) PTRACERS_ImplVertAdv = /* implicit vert. advection flag */
(PID.TID 0000.0001)                   F
(PID.TID 0000.0001)     ;
(PID.TID 0000.0001) PTRACERS_diffKh = /* Laplacian Diffusivity */
(PID.TID 0000.0001)                 0.000000000000000E+00
(PID.TID 0000.0001)     ;
(PID.TID 0000.0001) PTRACERS_diffK4 = /* Biharmonic Diffusivity */
(PID.TID 0000.0001)                 0.000000000000000E+00
(PID.TID 0000.0001)     ;
(PID.TID 0000.0001) PTRACERS_diffKrNr = /* Vertical Diffusivity */
(PID.TID 0000.0001)    15 @  1.000000000000000E-05              /* K =  1: 15 */
(PID.TID 0000.0001)     ;
(PID.TID 0000.0001) PTRACERS_useGMRedi = /* apply GM-Redi */
(PID.TID 0000.0001)                   T
(PID.TID 0000.0001)     ;
(PID.TID 0000.0001) PTRACERS_useDWNSLP = /* apply DOWN-SLOPE Flow */
(PID.TID 0000.0001)                   F
(PID.TID 0000.0001)     ;
(PID.TID 0000.0001) PTRACERS_useKPP = /* apply KPP scheme */
(PID.TID 0000.0001)                   F
(PID.TID 0000.0001)     ;
(PID.TID 0000.0001) PTRACERS_ref = /* Reference vertical profile */
(PID.TID 0000.0001)    15 @  0.000000000000000E+00              /* K =  1: 15 */
(PID.TID 0000.0001)     ;
(PID.TID 0000.0001) PTRACERS_EvPrRn =/* tracer conc. in Evap. & Rain */
(PID.TID 0000.0001)                 1.234567000000000E+05
(PID.TID 0000.0001)     ;
(PID.TID 0000.0001)  -----------------------------------
(PID.TID 0000.0001)  tracer number :  120
(PID.TID 0000.0001) PTRACERS_names = /* Tracer short name */
(PID.TID 0000.0001)               'n48'
(PID.TID 0000.0001)     ;
(PID.TID 0000.0001) PTRACERS_long_names = /* Tracer long name */
(PID.TID 0000.0001)               ''
(PID.TID 0000.0001)     ;
(PID.TID 0000.0001) PTRACERS_ioLabel = /* tracer IO Label */
(PID.TID 0000.0001)               '0u'
(PID.TID 0000.0001)     ;
(PID.TID 0000.0001) PTRACERS_advScheme = /* Advection Scheme */
(PID.TID 0000.0001)                      33
(PID.TID 0000.0001)     ;
(PID.TID 0000.0001) PTRACERS_SOM_Advection = /* tracer uses SOM advection scheme */
(PID.TID 0000.0001)                   F
(PID.TID 0000.0001)     ;
(PID.TID 0000.0001) PTRACERS_ImplVertAdv = /* implicit vert. advection flag */
(PID.TID 0000.0001)                   F
(PID.TID 0000.0001)     ;
(PID.TID 0000.0001) PTRACERS_diffKh = /* Laplacian Diffusivity */
(PID.TID 0000.0001)                 0.000000000000000E+00
(PID.TID 0000.0001)     ;
(PID.TID 0000.0001) PTRACERS_diffK4 = /* Biharmonic Diffusivity */
(PID.TID 0000.0001)                 0.000000000000000E+00
(PID.TID 0000.0001)     ;
(PID.TID 0000.0001) PTRACERS_diffKrNr = /* Vertical Diffusivity */
(PID.TID 0000.0001)    15 @  1.000000000000000E-05              /* K =  1: 15 */
(PID.TID 0000.0001)     ;
(PID.TID 0000.0001) PTRACERS_useGMRedi = /* apply GM-Redi */
(PID.TID 0000.0001)                   T
(PID.TID 0000.0001)     ;
(PID.TID 0000.0001) PTRACERS_useDWNSLP = /* apply DOWN-SLOPE Flow */
(PID.TID 0000.0001)                   F
(PID.TID 0000.0001)     ;
(PID.TID 0000.0001) PTRACERS_useKPP = /* apply KPP scheme */
(PID.TID 0000.0001)                   F
(PID.TID 0000.0001)     ;
(PID.TID 0000.0001) PTRACERS_ref = /* Reference vertical profile */
(PID.TID 0000.0001)    15 @  0.000000000000000E+00              /* K =  1: 15 */
(PID.TID 0000.0001)     ;
(PID.TID 0000.0001) PTRACERS_EvPrRn =/* tracer conc. in Evap. & Rain */
(PID.TID 0000.0001)                 1.234567000000000E+05
(PID.TID 0000.0001)     ;
(PID.TID 0000.0001)  -----------------------------------
(PID.TID 0000.0001)  tracer number :  121
(PID.TID 0000.0001) PTRACERS_names = /* Tracer short name */
(PID.TID 0000.0001)               'n49'
(PID.TID 0000.0001)     ;
(PID.TID 0000.0001) PTRACERS_long_names = /* Tracer long name */
(PID.TID 0000.0001)               ''
(PID.TID 0000.0001)     ;
(PID.TID 0000.0001) PTRACERS_ioLabel = /* tracer IO Label */
(PID.TID 0000.0001)               '0v'
(PID.TID 0000.0001)     ;
(PID.TID 0000.0001) PTRACERS_advScheme = /* Advection Scheme */
(PID.TID 0000.0001)                      33
(PID.TID 0000.0001)     ;
(PID.TID 0000.0001) PTRACERS_SOM_Advection = /* tracer uses SOM advection scheme */
(PID.TID 0000.0001)                   F
(PID.TID 0000.0001)     ;
(PID.TID 0000.0001) PTRACERS_ImplVertAdv = /* implicit vert. advection flag */
(PID.TID 0000.0001)                   F
(PID.TID 0000.0001)     ;
(PID.TID 0000.0001) PTRACERS_diffKh = /* Laplacian Diffusivity */
(PID.TID 0000.0001)                 0.000000000000000E+00
(PID.TID 0000.0001)     ;
(PID.TID 0000.0001) PTRACERS_diffK4 = /* Biharmonic Diffusivity */
(PID.TID 0000.0001)                 0.000000000000000E+00
(PID.TID 0000.0001)     ;
(PID.TID 0000.0001) PTRACERS_diffKrNr = /* Vertical Diffusivity */
(PID.TID 0000.0001)    15 @  1.000000000000000E-05              /* K =  1: 15 */
(PID.TID 0000.0001)     ;
(PID.TID 0000.0001) PTRACERS_useGMRedi = /* apply GM-Redi */
(PID.TID 0000.0001)                   T
(PID.TID 0000.0001)     ;
(PID.TID 0000.0001) PTRACERS_useDWNSLP = /* apply DOWN-SLOPE Flow */
(PID.TID 0000.0001)                   F
(PID.TID 0000.0001)     ;
(PID.TID 0000.0001) PTRACERS_useKPP = /* apply KPP scheme */
(PID.TID 0000.0001)                   F
(PID.TID 0000.0001)     ;
(PID.TID 0000.0001) PTRACERS_ref = /* Reference vertical profile */
(PID.TID 0000.0001)    15 @  0.000000000000000E+00              /* K =  1: 15 */
(PID.TID 0000.0001)     ;
(PID.TID 0000.0001) PTRACERS_EvPrRn =/* tracer conc. in Evap. & Rain */
(PID.TID 0000.0001)                 1.234567000000000E+05
(PID.TID 0000.0001)     ;
(PID.TID 0000.0001)  -----------------------------------
(PID.TID 0000.0001)  tracer number :  122
(PID.TID 0000.0001) PTRACERS_names = /* Tracer short name */
(PID.TID 0000.0001)               'n50'
(PID.TID 0000.0001)     ;
(PID.TID 0000.0001) PTRACERS_long_names = /* Tracer long name */
(PID.TID 0000.0001)               ''
(PID.TID 0000.0001)     ;
(PID.TID 0000.0001) PTRACERS_ioLabel = /* tracer IO Label */
(PID.TID 0000.0001)               '0w'
(PID.TID 0000.0001)     ;
(PID.TID 0000.0001) PTRACERS_advScheme = /* Advection Scheme */
(PID.TID 0000.0001)                      33
(PID.TID 0000.0001)     ;
(PID.TID 0000.0001) PTRACERS_SOM_Advection = /* tracer uses SOM advection scheme */
(PID.TID 0000.0001)                   F
(PID.TID 0000.0001)     ;
(PID.TID 0000.0001) PTRACERS_ImplVertAdv = /* implicit vert. advection flag */
(PID.TID 0000.0001)                   F
(PID.TID 0000.0001)     ;
(PID.TID 0000.0001) PTRACERS_diffKh = /* Laplacian Diffusivity */
(PID.TID 0000.0001)                 0.000000000000000E+00
(PID.TID 0000.0001)     ;
(PID.TID 0000.0001) PTRACERS_diffK4 = /* Biharmonic Diffusivity */
(PID.TID 0000.0001)                 0.000000000000000E+00
(PID.TID 0000.0001)     ;
(PID.TID 0000.0001) PTRACERS_diffKrNr = /* Vertical Diffusivity */
(PID.TID 0000.0001)    15 @  1.000000000000000E-05              /* K =  1: 15 */
(PID.TID 0000.0001)     ;
(PID.TID 0000.0001) PTRACERS_useGMRedi = /* apply GM-Redi */
(PID.TID 0000.0001)                   T
(PID.TID 0000.0001)     ;
(PID.TID 0000.0001) PTRACERS_useDWNSLP = /* apply DOWN-SLOPE Flow */
(PID.TID 0000.0001)                   F
(PID.TID 0000.0001)     ;
(PID.TID 0000.0001) PTRACERS_useKPP = /* apply KPP scheme */
(PID.TID 0000.0001)                   F
(PID.TID 0000.0001)     ;
(PID.TID 0000.0001) PTRACERS_ref = /* Reference vertical profile */
(PID.TID 0000.0001)    15 @  0.000000000000000E+00              /* K =  1: 15 */
(PID.TID 0000.0001)     ;
(PID.TID 0000.0001) PTRACERS_EvPrRn =/* tracer conc. in Evap. & Rain */
(PID.TID 0000.0001)                 1.234567000000000E+05
(PID.TID 0000.0001)     ;
(PID.TID 0000.0001)  -----------------------------------
(PID.TID 0000.0001)  tracer number :  123
(PID.TID 0000.0001) PTRACERS_names = /* Tracer short name */
(PID.TID 0000.0001)               'n51'
(PID.TID 0000.0001)     ;
(PID.TID 0000.0001) PTRACERS_long_names = /* Tracer long name */
(PID.TID 0000.0001)               ''
(PID.TID 0000.0001)     ;
(PID.TID 0000.0001) PTRACERS_ioLabel = /* tracer IO Label */
(PID.TID 0000.0001)               '0x'
(PID.TID 0000.0001)     ;
(PID.TID 0000.0001) PTRACERS_advScheme = /* Advection Scheme */
(PID.TID 0000.0001)                      33
(PID.TID 0000.0001)     ;
(PID.TID 0000.0001) PTRACERS_SOM_Advection = /* tracer uses SOM advection scheme */
(PID.TID 0000.0001)                   F
(PID.TID 0000.0001)     ;
(PID.TID 0000.0001) PTRACERS_ImplVertAdv = /* implicit vert. advection flag */
(PID.TID 0000.0001)                   F
(PID.TID 0000.0001)     ;
(PID.TID 0000.0001) PTRACERS_diffKh = /* Laplacian Diffusivity */
(PID.TID 0000.0001)                 0.000000000000000E+00
(PID.TID 0000.0001)     ;
(PID.TID 0000.0001) PTRACERS_diffK4 = /* Biharmonic Diffusivity */
(PID.TID 0000.0001)                 0.000000000000000E+00
(PID.TID 0000.0001)     ;
(PID.TID 0000.0001) PTRACERS_diffKrNr = /* Vertical Diffusivity */
(PID.TID 0000.0001)    15 @  1.000000000000000E-05              /* K =  1: 15 */
(PID.TID 0000.0001)     ;
(PID.TID 0000.0001) PTRACERS_useGMRedi = /* apply GM-Redi */
(PID.TID 0000.0001)                   T
(PID.TID 0000.0001)     ;
(PID.TID 0000.0001) PTRACERS_useDWNSLP = /* apply DOWN-SLOPE Flow */
(PID.TID 0000.0001)                   F
(PID.TID 0000.0001)     ;
(PID.TID 0000.0001) PTRACERS_useKPP = /* apply KPP scheme */
(PID.TID 0000.0001)                   F
(PID.TID 0000.0001)     ;
(PID.TID 0000.0001) PTRACERS_ref = /* Reference vertical profile */
(PID.TID 0000.0001)    15 @  0.000000000000000E+00              /* K =  1: 15 */
(PID.TID 0000.0001)     ;
(PID.TID 0000.0001) PTRACERS_EvPrRn =/* tracer conc. in Evap. & Rain */
(PID.TID 0000.0001)                 1.234567000000000E+05
(PID.TID 0000.0001)     ;
(PID.TID 0000.0001)  -----------------------------------
(PID.TID 0000.0001)  tracer number :  124
(PID.TID 0000.0001) PTRACERS_names = /* Tracer short name */
(PID.TID 0000.0001)               'n52'
(PID.TID 0000.0001)     ;
(PID.TID 0000.0001) PTRACERS_long_names = /* Tracer long name */
(PID.TID 0000.0001)               ''
(PID.TID 0000.0001)     ;
(PID.TID 0000.0001) PTRACERS_ioLabel = /* tracer IO Label */
(PID.TID 0000.0001)               '0y'
(PID.TID 0000.0001)     ;
(PID.TID 0000.0001) PTRACERS_advScheme = /* Advection Scheme */
(PID.TID 0000.0001)                      33
(PID.TID 0000.0001)     ;
(PID.TID 0000.0001) PTRACERS_SOM_Advection = /* tracer uses SOM advection scheme */
(PID.TID 0000.0001)                   F
(PID.TID 0000.0001)     ;
(PID.TID 0000.0001) PTRACERS_ImplVertAdv = /* implicit vert. advection flag */
(PID.TID 0000.0001)                   F
(PID.TID 0000.0001)     ;
(PID.TID 0000.0001) PTRACERS_diffKh = /* Laplacian Diffusivity */
(PID.TID 0000.0001)                 0.000000000000000E+00
(PID.TID 0000.0001)     ;
(PID.TID 0000.0001) PTRACERS_diffK4 = /* Biharmonic Diffusivity */
(PID.TID 0000.0001)                 0.000000000000000E+00
(PID.TID 0000.0001)     ;
(PID.TID 0000.0001) PTRACERS_diffKrNr = /* Vertical Diffusivity */
(PID.TID 0000.0001)    15 @  1.000000000000000E-05              /* K =  1: 15 */
(PID.TID 0000.0001)     ;
(PID.TID 0000.0001) PTRACERS_useGMRedi = /* apply GM-Redi */
(PID.TID 0000.0001)                   T
(PID.TID 0000.0001)     ;
(PID.TID 0000.0001) PTRACERS_useDWNSLP = /* apply DOWN-SLOPE Flow */
(PID.TID 0000.0001)                   F
(PID.TID 0000.0001)     ;
(PID.TID 0000.0001) PTRACERS_useKPP = /* apply KPP scheme */
(PID.TID 0000.0001)                   F
(PID.TID 0000.0001)     ;
(PID.TID 0000.0001) PTRACERS_ref = /* Reference vertical profile */
(PID.TID 0000.0001)    15 @  0.000000000000000E+00              /* K =  1: 15 */
(PID.TID 0000.0001)     ;
(PID.TID 0000.0001) PTRACERS_EvPrRn =/* tracer conc. in Evap. & Rain */
(PID.TID 0000.0001)                 1.234567000000000E+05
(PID.TID 0000.0001)     ;
(PID.TID 0000.0001)  -----------------------------------
(PID.TID 0000.0001)  tracer number :  125
(PID.TID 0000.0001) PTRACERS_names = /* Tracer short name */
(PID.TID 0000.0001)               'n53'
(PID.TID 0000.0001)     ;
(PID.TID 0000.0001) PTRACERS_long_names = /* Tracer long name */
(PID.TID 0000.0001)               ''
(PID.TID 0000.0001)     ;
(PID.TID 0000.0001) PTRACERS_ioLabel = /* tracer IO Label */
(PID.TID 0000.0001)               '0z'
(PID.TID 0000.0001)     ;
(PID.TID 0000.0001) PTRACERS_advScheme = /* Advection Scheme */
(PID.TID 0000.0001)                      33
(PID.TID 0000.0001)     ;
(PID.TID 0000.0001) PTRACERS_SOM_Advection = /* tracer uses SOM advection scheme */
(PID.TID 0000.0001)                   F
(PID.TID 0000.0001)     ;
(PID.TID 0000.0001) PTRACERS_ImplVertAdv = /* implicit vert. advection flag */
(PID.TID 0000.0001)                   F
(PID.TID 0000.0001)     ;
(PID.TID 0000.0001) PTRACERS_diffKh = /* Laplacian Diffusivity */
(PID.TID 0000.0001)                 0.000000000000000E+00
(PID.TID 0000.0001)     ;
(PID.TID 0000.0001) PTRACERS_diffK4 = /* Biharmonic Diffusivity */
(PID.TID 0000.0001)                 0.000000000000000E+00
(PID.TID 0000.0001)     ;
(PID.TID 0000.0001) PTRACERS_diffKrNr = /* Vertical Diffusivity */
(PID.TID 0000.0001)    15 @  1.000000000000000E-05              /* K =  1: 15 */
(PID.TID 0000.0001)     ;
(PID.TID 0000.0001) PTRACERS_useGMRedi = /* apply GM-Redi */
(PID.TID 0000.0001)                   T
(PID.TID 0000.0001)     ;
(PID.TID 0000.0001) PTRACERS_useDWNSLP = /* apply DOWN-SLOPE Flow */
(PID.TID 0000.0001)                   F
(PID.TID 0000.0001)     ;
(PID.TID 0000.0001) PTRACERS_useKPP = /* apply KPP scheme */
(PID.TID 0000.0001)                   F
(PID.TID 0000.0001)     ;
(PID.TID 0000.0001) PTRACERS_ref = /* Reference vertical profile */
(PID.TID 0000.0001)    15 @  0.000000000000000E+00              /* K =  1: 15 */
(PID.TID 0000.0001)     ;
(PID.TID 0000.0001) PTRACERS_EvPrRn =/* tracer conc. in Evap. & Rain */
(PID.TID 0000.0001)                 1.234567000000000E+05
(PID.TID 0000.0001)     ;
(PID.TID 0000.0001)  -----------------------------------
(PID.TID 0000.0001)  tracer number :  126
(PID.TID 0000.0001) PTRACERS_names = /* Tracer short name */
(PID.TID 0000.0001)               'n54'
(PID.TID 0000.0001)     ;
(PID.TID 0000.0001) PTRACERS_long_names = /* Tracer long name */
(PID.TID 0000.0001)               ''
(PID.TID 0000.0001)     ;
(PID.TID 0000.0001) PTRACERS_ioLabel = /* tracer IO Label */
(PID.TID 0000.0001)               '0A'
(PID.TID 0000.0001)     ;
(PID.TID 0000.0001) PTRACERS_advScheme = /* Advection Scheme */
(PID.TID 0000.0001)                      33
(PID.TID 0000.0001)     ;
(PID.TID 0000.0001) PTRACERS_SOM_Advection = /* tracer uses SOM advection scheme */
(PID.TID 0000.0001)                   F
(PID.TID 0000.0001)     ;
(PID.TID 0000.0001) PTRACERS_ImplVertAdv = /* implicit vert. advection flag */
(PID.TID 0000.0001)                   F
(PID.TID 0000.0001)     ;
(PID.TID 0000.0001) PTRACERS_diffKh = /* Laplacian Diffusivity */
(PID.TID 0000.0001)                 0.000000000000000E+00
(PID.TID 0000.0001)     ;
(PID.TID 0000.0001) PTRACERS_diffK4 = /* Biharmonic Diffusivity */
(PID.TID 0000.0001)                 0.000000000000000E+00
(PID.TID 0000.0001)     ;
(PID.TID 0000.0001) PTRACERS_diffKrNr = /* Vertical Diffusivity */
(PID.TID 0000.0001)    15 @  1.000000000000000E-05              /* K =  1: 15 */
(PID.TID 0000.0001)     ;
(PID.TID 0000.0001) PTRACERS_useGMRedi = /* apply GM-Redi */
(PID.TID 0000.0001)                   T
(PID.TID 0000.0001)     ;
(PID.TID 0000.0001) PTRACERS_useDWNSLP = /* apply DOWN-SLOPE Flow */
(PID.TID 0000.0001)                   F
(PID.TID 0000.0001)     ;
(PID.TID 0000.0001) PTRACERS_useKPP = /* apply KPP scheme */
(PID.TID 0000.0001)                   F
(PID.TID 0000.0001)     ;
(PID.TID 0000.0001) PTRACERS_ref = /* Reference vertical profile */
(PID.TID 0000.0001)    15 @  0.000000000000000E+00              /* K =  1: 15 */
(PID.TID 0000.0001)     ;
(PID.TID 0000.0001) PTRACERS_EvPrRn =/* tracer conc. in Evap. & Rain */
(PID.TID 0000.0001)                 1.234567000000000E+05
(PID.TID 0000.0001)     ;
(PID.TID 0000.0001)  -----------------------------------
(PID.TID 0000.0001)  tracer number :  127
(PID.TID 0000.0001) PTRACERS_names = /* Tracer short name */
(PID.TID 0000.0001)               'n55'
(PID.TID 0000.0001)     ;
(PID.TID 0000.0001) PTRACERS_long_names = /* Tracer long name */
(PID.TID 0000.0001)               ''
(PID.TID 0000.0001)     ;
(PID.TID 0000.0001) PTRACERS_ioLabel = /* tracer IO Label */
(PID.TID 0000.0001)               '0B'
(PID.TID 0000.0001)     ;
(PID.TID 0000.0001) PTRACERS_advScheme = /* Advection Scheme */
(PID.TID 0000.0001)                      33
(PID.TID 0000.0001)     ;
(PID.TID 0000.0001) PTRACERS_SOM_Advection = /* tracer uses SOM advection scheme */
(PID.TID 0000.0001)                   F
(PID.TID 0000.0001)     ;
(PID.TID 0000.0001) PTRACERS_ImplVertAdv = /* implicit vert. advection flag */
(PID.TID 0000.0001)                   F
(PID.TID 0000.0001)     ;
(PID.TID 0000.0001) PTRACERS_diffKh = /* Laplacian Diffusivity */
(PID.TID 0000.0001)                 0.000000000000000E+00
(PID.TID 0000.0001)     ;
(PID.TID 0000.0001) PTRACERS_diffK4 = /* Biharmonic Diffusivity */
(PID.TID 0000.0001)                 0.000000000000000E+00
(PID.TID 0000.0001)     ;
(PID.TID 0000.0001) PTRACERS_diffKrNr = /* Vertical Diffusivity */
(PID.TID 0000.0001)    15 @  1.000000000000000E-05              /* K =  1: 15 */
(PID.TID 0000.0001)     ;
(PID.TID 0000.0001) PTRACERS_useGMRedi = /* apply GM-Redi */
(PID.TID 0000.0001)                   T
(PID.TID 0000.0001)     ;
(PID.TID 0000.0001) PTRACERS_useDWNSLP = /* apply DOWN-SLOPE Flow */
(PID.TID 0000.0001)                   F
(PID.TID 0000.0001)     ;
(PID.TID 0000.0001) PTRACERS_useKPP = /* apply KPP scheme */
(PID.TID 0000.0001)                   F
(PID.TID 0000.0001)     ;
(PID.TID 0000.0001) PTRACERS_ref = /* Reference vertical profile */
(PID.TID 0000.0001)    15 @  0.000000000000000E+00              /* K =  1: 15 */
(PID.TID 0000.0001)     ;
(PID.TID 0000.0001) PTRACERS_EvPrRn =/* tracer conc. in Evap. & Rain */
(PID.TID 0000.0001)                 1.234567000000000E+05
(PID.TID 0000.0001)     ;
(PID.TID 0000.0001)  -----------------------------------
(PID.TID 0000.0001)  tracer number :  128
(PID.TID 0000.0001) PTRACERS_names = /* Tracer short name */
(PID.TID 0000.0001)               'fe01'
(PID.TID 0000.0001)     ;
(PID.TID 0000.0001) PTRACERS_long_names = /* Tracer long name */
(PID.TID 0000.0001)               ''
(PID.TID 0000.0001)     ;
(PID.TID 0000.0001) PTRACERS_ioLabel = /* tracer IO Label */
(PID.TID 0000.0001)               '0C'
(PID.TID 0000.0001)     ;
(PID.TID 0000.0001) PTRACERS_advScheme = /* Advection Scheme */
(PID.TID 0000.0001)                      33
(PID.TID 0000.0001)     ;
(PID.TID 0000.0001) PTRACERS_SOM_Advection = /* tracer uses SOM advection scheme */
(PID.TID 0000.0001)                   F
(PID.TID 0000.0001)     ;
(PID.TID 0000.0001) PTRACERS_ImplVertAdv = /* implicit vert. advection flag */
(PID.TID 0000.0001)                   F
(PID.TID 0000.0001)     ;
(PID.TID 0000.0001) PTRACERS_diffKh = /* Laplacian Diffusivity */
(PID.TID 0000.0001)                 0.000000000000000E+00
(PID.TID 0000.0001)     ;
(PID.TID 0000.0001) PTRACERS_diffK4 = /* Biharmonic Diffusivity */
(PID.TID 0000.0001)                 0.000000000000000E+00
(PID.TID 0000.0001)     ;
(PID.TID 0000.0001) PTRACERS_diffKrNr = /* Vertical Diffusivity */
(PID.TID 0000.0001)    15 @  1.000000000000000E-05              /* K =  1: 15 */
(PID.TID 0000.0001)     ;
(PID.TID 0000.0001) PTRACERS_useGMRedi = /* apply GM-Redi */
(PID.TID 0000.0001)                   T
(PID.TID 0000.0001)     ;
(PID.TID 0000.0001) PTRACERS_useDWNSLP = /* apply DOWN-SLOPE Flow */
(PID.TID 0000.0001)                   F
(PID.TID 0000.0001)     ;
(PID.TID 0000.0001) PTRACERS_useKPP = /* apply KPP scheme */
(PID.TID 0000.0001)                   F
(PID.TID 0000.0001)     ;
(PID.TID 0000.0001) PTRACERS_ref = /* Reference vertical profile */
(PID.TID 0000.0001)    15 @  0.000000000000000E+00              /* K =  1: 15 */
(PID.TID 0000.0001)     ;
(PID.TID 0000.0001) PTRACERS_EvPrRn =/* tracer conc. in Evap. & Rain */
(PID.TID 0000.0001)                 1.234567000000000E+05
(PID.TID 0000.0001)     ;
(PID.TID 0000.0001)  -----------------------------------
(PID.TID 0000.0001)  tracer number :  129
(PID.TID 0000.0001) PTRACERS_names = /* Tracer short name */
(PID.TID 0000.0001)               'fe02'
(PID.TID 0000.0001)     ;
(PID.TID 0000.0001) PTRACERS_long_names = /* Tracer long name */
(PID.TID 0000.0001)               ''
(PID.TID 0000.0001)     ;
(PID.TID 0000.0001) PTRACERS_ioLabel = /* tracer IO Label */
(PID.TID 0000.0001)               '0D'
(PID.TID 0000.0001)     ;
(PID.TID 0000.0001) PTRACERS_advScheme = /* Advection Scheme */
(PID.TID 0000.0001)                      33
(PID.TID 0000.0001)     ;
(PID.TID 0000.0001) PTRACERS_SOM_Advection = /* tracer uses SOM advection scheme */
(PID.TID 0000.0001)                   F
(PID.TID 0000.0001)     ;
(PID.TID 0000.0001) PTRACERS_ImplVertAdv = /* implicit vert. advection flag */
(PID.TID 0000.0001)                   F
(PID.TID 0000.0001)     ;
(PID.TID 0000.0001) PTRACERS_diffKh = /* Laplacian Diffusivity */
(PID.TID 0000.0001)                 0.000000000000000E+00
(PID.TID 0000.0001)     ;
(PID.TID 0000.0001) PTRACERS_diffK4 = /* Biharmonic Diffusivity */
(PID.TID 0000.0001)                 0.000000000000000E+00
(PID.TID 0000.0001)     ;
(PID.TID 0000.0001) PTRACERS_diffKrNr = /* Vertical Diffusivity */
(PID.TID 0000.0001)    15 @  1.000000000000000E-05              /* K =  1: 15 */
(PID.TID 0000.0001)     ;
(PID.TID 0000.0001) PTRACERS_useGMRedi = /* apply GM-Redi */
(PID.TID 0000.0001)                   T
(PID.TID 0000.0001)     ;
(PID.TID 0000.0001) PTRACERS_useDWNSLP = /* apply DOWN-SLOPE Flow */
(PID.TID 0000.0001)                   F
(PID.TID 0000.0001)     ;
(PID.TID 0000.0001) PTRACERS_useKPP = /* apply KPP scheme */
(PID.TID 0000.0001)                   F
(PID.TID 0000.0001)     ;
(PID.TID 0000.0001) PTRACERS_ref = /* Reference vertical profile */
(PID.TID 0000.0001)    15 @  0.000000000000000E+00              /* K =  1: 15 */
(PID.TID 0000.0001)     ;
(PID.TID 0000.0001) PTRACERS_EvPrRn =/* tracer conc. in Evap. & Rain */
(PID.TID 0000.0001)                 1.234567000000000E+05
(PID.TID 0000.0001)     ;
(PID.TID 0000.0001)  -----------------------------------
(PID.TID 0000.0001)  tracer number :  130
(PID.TID 0000.0001) PTRACERS_names = /* Tracer short name */
(PID.TID 0000.0001)               'fe03'
(PID.TID 0000.0001)     ;
(PID.TID 0000.0001) PTRACERS_long_names = /* Tracer long name */
(PID.TID 0000.0001)               ''
(PID.TID 0000.0001)     ;
(PID.TID 0000.0001) PTRACERS_ioLabel = /* tracer IO Label */
(PID.TID 0000.0001)               '0E'
(PID.TID 0000.0001)     ;
(PID.TID 0000.0001) PTRACERS_advScheme = /* Advection Scheme */
(PID.TID 0000.0001)                      33
(PID.TID 0000.0001)     ;
(PID.TID 0000.0001) PTRACERS_SOM_Advection = /* tracer uses SOM advection scheme */
(PID.TID 0000.0001)                   F
(PID.TID 0000.0001)     ;
(PID.TID 0000.0001) PTRACERS_ImplVertAdv = /* implicit vert. advection flag */
(PID.TID 0000.0001)                   F
(PID.TID 0000.0001)     ;
(PID.TID 0000.0001) PTRACERS_diffKh = /* Laplacian Diffusivity */
(PID.TID 0000.0001)                 0.000000000000000E+00
(PID.TID 0000.0001)     ;
(PID.TID 0000.0001) PTRACERS_diffK4 = /* Biharmonic Diffusivity */
(PID.TID 0000.0001)                 0.000000000000000E+00
(PID.TID 0000.0001)     ;
(PID.TID 0000.0001) PTRACERS_diffKrNr = /* Vertical Diffusivity */
(PID.TID 0000.0001)    15 @  1.000000000000000E-05              /* K =  1: 15 */
(PID.TID 0000.0001)     ;
(PID.TID 0000.0001) PTRACERS_useGMRedi = /* apply GM-Redi */
(PID.TID 0000.0001)                   T
(PID.TID 0000.0001)     ;
(PID.TID 0000.0001) PTRACERS_useDWNSLP = /* apply DOWN-SLOPE Flow */
(PID.TID 0000.0001)                   F
(PID.TID 0000.0001)     ;
(PID.TID 0000.0001) PTRACERS_useKPP = /* apply KPP scheme */
(PID.TID 0000.0001)                   F
(PID.TID 0000.0001)     ;
(PID.TID 0000.0001) PTRACERS_ref = /* Reference vertical profile */
(PID.TID 0000.0001)    15 @  0.000000000000000E+00              /* K =  1: 15 */
(PID.TID 0000.0001)     ;
(PID.TID 0000.0001) PTRACERS_EvPrRn =/* tracer conc. in Evap. & Rain */
(PID.TID 0000.0001)                 1.234567000000000E+05
(PID.TID 0000.0001)     ;
(PID.TID 0000.0001)  -----------------------------------
(PID.TID 0000.0001)  tracer number :  131
(PID.TID 0000.0001) PTRACERS_names = /* Tracer short name */
(PID.TID 0000.0001)               'fe04'
(PID.TID 0000.0001)     ;
(PID.TID 0000.0001) PTRACERS_long_names = /* Tracer long name */
(PID.TID 0000.0001)               ''
(PID.TID 0000.0001)     ;
(PID.TID 0000.0001) PTRACERS_ioLabel = /* tracer IO Label */
(PID.TID 0000.0001)               '0F'
(PID.TID 0000.0001)     ;
(PID.TID 0000.0001) PTRACERS_advScheme = /* Advection Scheme */
(PID.TID 0000.0001)                      33
(PID.TID 0000.0001)     ;
(PID.TID 0000.0001) PTRACERS_SOM_Advection = /* tracer uses SOM advection scheme */
(PID.TID 0000.0001)                   F
(PID.TID 0000.0001)     ;
(PID.TID 0000.0001) PTRACERS_ImplVertAdv = /* implicit vert. advection flag */
(PID.TID 0000.0001)                   F
(PID.TID 0000.0001)     ;
(PID.TID 0000.0001) PTRACERS_diffKh = /* Laplacian Diffusivity */
(PID.TID 0000.0001)                 0.000000000000000E+00
(PID.TID 0000.0001)     ;
(PID.TID 0000.0001) PTRACERS_diffK4 = /* Biharmonic Diffusivity */
(PID.TID 0000.0001)                 0.000000000000000E+00
(PID.TID 0000.0001)     ;
(PID.TID 0000.0001) PTRACERS_diffKrNr = /* Vertical Diffusivity */
(PID.TID 0000.0001)    15 @  1.000000000000000E-05              /* K =  1: 15 */
(PID.TID 0000.0001)     ;
(PID.TID 0000.0001) PTRACERS_useGMRedi = /* apply GM-Redi */
(PID.TID 0000.0001)                   T
(PID.TID 0000.0001)     ;
(PID.TID 0000.0001) PTRACERS_useDWNSLP = /* apply DOWN-SLOPE Flow */
(PID.TID 0000.0001)                   F
(PID.TID 0000.0001)     ;
(PID.TID 0000.0001) PTRACERS_useKPP = /* apply KPP scheme */
(PID.TID 0000.0001)                   F
(PID.TID 0000.0001)     ;
(PID.TID 0000.0001) PTRACERS_ref = /* Reference vertical profile */
(PID.TID 0000.0001)    15 @  0.000000000000000E+00              /* K =  1: 15 */
(PID.TID 0000.0001)     ;
(PID.TID 0000.0001) PTRACERS_EvPrRn =/* tracer conc. in Evap. & Rain */
(PID.TID 0000.0001)                 1.234567000000000E+05
(PID.TID 0000.0001)     ;
(PID.TID 0000.0001)  -----------------------------------
(PID.TID 0000.0001)  tracer number :  132
(PID.TID 0000.0001) PTRACERS_names = /* Tracer short name */
(PID.TID 0000.0001)               'fe05'
(PID.TID 0000.0001)     ;
(PID.TID 0000.0001) PTRACERS_long_names = /* Tracer long name */
(PID.TID 0000.0001)               ''
(PID.TID 0000.0001)     ;
(PID.TID 0000.0001) PTRACERS_ioLabel = /* tracer IO Label */
(PID.TID 0000.0001)               '0G'
(PID.TID 0000.0001)     ;
(PID.TID 0000.0001) PTRACERS_advScheme = /* Advection Scheme */
(PID.TID 0000.0001)                      33
(PID.TID 0000.0001)     ;
(PID.TID 0000.0001) PTRACERS_SOM_Advection = /* tracer uses SOM advection scheme */
(PID.TID 0000.0001)                   F
(PID.TID 0000.0001)     ;
(PID.TID 0000.0001) PTRACERS_ImplVertAdv = /* implicit vert. advection flag */
(PID.TID 0000.0001)                   F
(PID.TID 0000.0001)     ;
(PID.TID 0000.0001) PTRACERS_diffKh = /* Laplacian Diffusivity */
(PID.TID 0000.0001)                 0.000000000000000E+00
(PID.TID 0000.0001)     ;
(PID.TID 0000.0001) PTRACERS_diffK4 = /* Biharmonic Diffusivity */
(PID.TID 0000.0001)                 0.000000000000000E+00
(PID.TID 0000.0001)     ;
(PID.TID 0000.0001) PTRACERS_diffKrNr = /* Vertical Diffusivity */
(PID.TID 0000.0001)    15 @  1.000000000000000E-05              /* K =  1: 15 */
(PID.TID 0000.0001)     ;
(PID.TID 0000.0001) PTRACERS_useGMRedi = /* apply GM-Redi */
(PID.TID 0000.0001)                   T
(PID.TID 0000.0001)     ;
(PID.TID 0000.0001) PTRACERS_useDWNSLP = /* apply DOWN-SLOPE Flow */
(PID.TID 0000.0001)                   F
(PID.TID 0000.0001)     ;
(PID.TID 0000.0001) PTRACERS_useKPP = /* apply KPP scheme */
(PID.TID 0000.0001)                   F
(PID.TID 0000.0001)     ;
(PID.TID 0000.0001) PTRACERS_ref = /* Reference vertical profile */
(PID.TID 0000.0001)    15 @  0.000000000000000E+00              /* K =  1: 15 */
(PID.TID 0000.0001)     ;
(PID.TID 0000.0001) PTRACERS_EvPrRn =/* tracer conc. in Evap. & Rain */
(PID.TID 0000.0001)                 1.234567000000000E+05
(PID.TID 0000.0001)     ;
(PID.TID 0000.0001)  -----------------------------------
(PID.TID 0000.0001)  tracer number :  133
(PID.TID 0000.0001) PTRACERS_names = /* Tracer short name */
(PID.TID 0000.0001)               'fe06'
(PID.TID 0000.0001)     ;
(PID.TID 0000.0001) PTRACERS_long_names = /* Tracer long name */
(PID.TID 0000.0001)               ''
(PID.TID 0000.0001)     ;
(PID.TID 0000.0001) PTRACERS_ioLabel = /* tracer IO Label */
(PID.TID 0000.0001)               '0H'
(PID.TID 0000.0001)     ;
(PID.TID 0000.0001) PTRACERS_advScheme = /* Advection Scheme */
(PID.TID 0000.0001)                      33
(PID.TID 0000.0001)     ;
(PID.TID 0000.0001) PTRACERS_SOM_Advection = /* tracer uses SOM advection scheme */
(PID.TID 0000.0001)                   F
(PID.TID 0000.0001)     ;
(PID.TID 0000.0001) PTRACERS_ImplVertAdv = /* implicit vert. advection flag */
(PID.TID 0000.0001)                   F
(PID.TID 0000.0001)     ;
(PID.TID 0000.0001) PTRACERS_diffKh = /* Laplacian Diffusivity */
(PID.TID 0000.0001)                 0.000000000000000E+00
(PID.TID 0000.0001)     ;
(PID.TID 0000.0001) PTRACERS_diffK4 = /* Biharmonic Diffusivity */
(PID.TID 0000.0001)                 0.000000000000000E+00
(PID.TID 0000.0001)     ;
(PID.TID 0000.0001) PTRACERS_diffKrNr = /* Vertical Diffusivity */
(PID.TID 0000.0001)    15 @  1.000000000000000E-05              /* K =  1: 15 */
(PID.TID 0000.0001)     ;
(PID.TID 0000.0001) PTRACERS_useGMRedi = /* apply GM-Redi */
(PID.TID 0000.0001)                   T
(PID.TID 0000.0001)     ;
(PID.TID 0000.0001) PTRACERS_useDWNSLP = /* apply DOWN-SLOPE Flow */
(PID.TID 0000.0001)                   F
(PID.TID 0000.0001)     ;
(PID.TID 0000.0001) PTRACERS_useKPP = /* apply KPP scheme */
(PID.TID 0000.0001)                   F
(PID.TID 0000.0001)     ;
(PID.TID 0000.0001) PTRACERS_ref = /* Reference vertical profile */
(PID.TID 0000.0001)    15 @  0.000000000000000E+00              /* K =  1: 15 */
(PID.TID 0000.0001)     ;
(PID.TID 0000.0001) PTRACERS_EvPrRn =/* tracer conc. in Evap. & Rain */
(PID.TID 0000.0001)                 1.234567000000000E+05
(PID.TID 0000.0001)     ;
(PID.TID 0000.0001)  -----------------------------------
(PID.TID 0000.0001)  tracer number :  134
(PID.TID 0000.0001) PTRACERS_names = /* Tracer short name */
(PID.TID 0000.0001)               'fe07'
(PID.TID 0000.0001)     ;
(PID.TID 0000.0001) PTRACERS_long_names = /* Tracer long name */
(PID.TID 0000.0001)               ''
(PID.TID 0000.0001)     ;
(PID.TID 0000.0001) PTRACERS_ioLabel = /* tracer IO Label */
(PID.TID 0000.0001)               '0I'
(PID.TID 0000.0001)     ;
(PID.TID 0000.0001) PTRACERS_advScheme = /* Advection Scheme */
(PID.TID 0000.0001)                      33
(PID.TID 0000.0001)     ;
(PID.TID 0000.0001) PTRACERS_SOM_Advection = /* tracer uses SOM advection scheme */
(PID.TID 0000.0001)                   F
(PID.TID 0000.0001)     ;
(PID.TID 0000.0001) PTRACERS_ImplVertAdv = /* implicit vert. advection flag */
(PID.TID 0000.0001)                   F
(PID.TID 0000.0001)     ;
(PID.TID 0000.0001) PTRACERS_diffKh = /* Laplacian Diffusivity */
(PID.TID 0000.0001)                 0.000000000000000E+00
(PID.TID 0000.0001)     ;
(PID.TID 0000.0001) PTRACERS_diffK4 = /* Biharmonic Diffusivity */
(PID.TID 0000.0001)                 0.000000000000000E+00
(PID.TID 0000.0001)     ;
(PID.TID 0000.0001) PTRACERS_diffKrNr = /* Vertical Diffusivity */
(PID.TID 0000.0001)    15 @  1.000000000000000E-05              /* K =  1: 15 */
(PID.TID 0000.0001)     ;
(PID.TID 0000.0001) PTRACERS_useGMRedi = /* apply GM-Redi */
(PID.TID 0000.0001)                   T
(PID.TID 0000.0001)     ;
(PID.TID 0000.0001) PTRACERS_useDWNSLP = /* apply DOWN-SLOPE Flow */
(PID.TID 0000.0001)                   F
(PID.TID 0000.0001)     ;
(PID.TID 0000.0001) PTRACERS_useKPP = /* apply KPP scheme */
(PID.TID 0000.0001)                   F
(PID.TID 0000.0001)     ;
(PID.TID 0000.0001) PTRACERS_ref = /* Reference vertical profile */
(PID.TID 0000.0001)    15 @  0.000000000000000E+00              /* K =  1: 15 */
(PID.TID 0000.0001)     ;
(PID.TID 0000.0001) PTRACERS_EvPrRn =/* tracer conc. in Evap. & Rain */
(PID.TID 0000.0001)                 1.234567000000000E+05
(PID.TID 0000.0001)     ;
(PID.TID 0000.0001)  -----------------------------------
(PID.TID 0000.0001)  tracer number :  135
(PID.TID 0000.0001) PTRACERS_names = /* Tracer short name */
(PID.TID 0000.0001)               'fe08'
(PID.TID 0000.0001)     ;
(PID.TID 0000.0001) PTRACERS_long_names = /* Tracer long name */
(PID.TID 0000.0001)               ''
(PID.TID 0000.0001)     ;
(PID.TID 0000.0001) PTRACERS_ioLabel = /* tracer IO Label */
(PID.TID 0000.0001)               '0J'
(PID.TID 0000.0001)     ;
(PID.TID 0000.0001) PTRACERS_advScheme = /* Advection Scheme */
(PID.TID 0000.0001)                      33
(PID.TID 0000.0001)     ;
(PID.TID 0000.0001) PTRACERS_SOM_Advection = /* tracer uses SOM advection scheme */
(PID.TID 0000.0001)                   F
(PID.TID 0000.0001)     ;
(PID.TID 0000.0001) PTRACERS_ImplVertAdv = /* implicit vert. advection flag */
(PID.TID 0000.0001)                   F
(PID.TID 0000.0001)     ;
(PID.TID 0000.0001) PTRACERS_diffKh = /* Laplacian Diffusivity */
(PID.TID 0000.0001)                 0.000000000000000E+00
(PID.TID 0000.0001)     ;
(PID.TID 0000.0001) PTRACERS_diffK4 = /* Biharmonic Diffusivity */
(PID.TID 0000.0001)                 0.000000000000000E+00
(PID.TID 0000.0001)     ;
(PID.TID 0000.0001) PTRACERS_diffKrNr = /* Vertical Diffusivity */
(PID.TID 0000.0001)    15 @  1.000000000000000E-05              /* K =  1: 15 */
(PID.TID 0000.0001)     ;
(PID.TID 0000.0001) PTRACERS_useGMRedi = /* apply GM-Redi */
(PID.TID 0000.0001)                   T
(PID.TID 0000.0001)     ;
(PID.TID 0000.0001) PTRACERS_useDWNSLP = /* apply DOWN-SLOPE Flow */
(PID.TID 0000.0001)                   F
(PID.TID 0000.0001)     ;
(PID.TID 0000.0001) PTRACERS_useKPP = /* apply KPP scheme */
(PID.TID 0000.0001)                   F
(PID.TID 0000.0001)     ;
(PID.TID 0000.0001) PTRACERS_ref = /* Reference vertical profile */
(PID.TID 0000.0001)    15 @  0.000000000000000E+00              /* K =  1: 15 */
(PID.TID 0000.0001)     ;
(PID.TID 0000.0001) PTRACERS_EvPrRn =/* tracer conc. in Evap. & Rain */
(PID.TID 0000.0001)                 1.234567000000000E+05
(PID.TID 0000.0001)     ;
(PID.TID 0000.0001)  -----------------------------------
(PID.TID 0000.0001)  tracer number :  136
(PID.TID 0000.0001) PTRACERS_names = /* Tracer short name */
(PID.TID 0000.0001)               'fe09'
(PID.TID 0000.0001)     ;
(PID.TID 0000.0001) PTRACERS_long_names = /* Tracer long name */
(PID.TID 0000.0001)               ''
(PID.TID 0000.0001)     ;
(PID.TID 0000.0001) PTRACERS_ioLabel = /* tracer IO Label */
(PID.TID 0000.0001)               '0K'
(PID.TID 0000.0001)     ;
(PID.TID 0000.0001) PTRACERS_advScheme = /* Advection Scheme */
(PID.TID 0000.0001)                      33
(PID.TID 0000.0001)     ;
(PID.TID 0000.0001) PTRACERS_SOM_Advection = /* tracer uses SOM advection scheme */
(PID.TID 0000.0001)                   F
(PID.TID 0000.0001)     ;
(PID.TID 0000.0001) PTRACERS_ImplVertAdv = /* implicit vert. advection flag */
(PID.TID 0000.0001)                   F
(PID.TID 0000.0001)     ;
(PID.TID 0000.0001) PTRACERS_diffKh = /* Laplacian Diffusivity */
(PID.TID 0000.0001)                 0.000000000000000E+00
(PID.TID 0000.0001)     ;
(PID.TID 0000.0001) PTRACERS_diffK4 = /* Biharmonic Diffusivity */
(PID.TID 0000.0001)                 0.000000000000000E+00
(PID.TID 0000.0001)     ;
(PID.TID 0000.0001) PTRACERS_diffKrNr = /* Vertical Diffusivity */
(PID.TID 0000.0001)    15 @  1.000000000000000E-05              /* K =  1: 15 */
(PID.TID 0000.0001)     ;
(PID.TID 0000.0001) PTRACERS_useGMRedi = /* apply GM-Redi */
(PID.TID 0000.0001)                   T
(PID.TID 0000.0001)     ;
(PID.TID 0000.0001) PTRACERS_useDWNSLP = /* apply DOWN-SLOPE Flow */
(PID.TID 0000.0001)                   F
(PID.TID 0000.0001)     ;
(PID.TID 0000.0001) PTRACERS_useKPP = /* apply KPP scheme */
(PID.TID 0000.0001)                   F
(PID.TID 0000.0001)     ;
(PID.TID 0000.0001) PTRACERS_ref = /* Reference vertical profile */
(PID.TID 0000.0001)    15 @  0.000000000000000E+00              /* K =  1: 15 */
(PID.TID 0000.0001)     ;
(PID.TID 0000.0001) PTRACERS_EvPrRn =/* tracer conc. in Evap. & Rain */
(PID.TID 0000.0001)                 1.234567000000000E+05
(PID.TID 0000.0001)     ;
(PID.TID 0000.0001)  -----------------------------------
(PID.TID 0000.0001)  tracer number :  137
(PID.TID 0000.0001) PTRACERS_names = /* Tracer short name */
(PID.TID 0000.0001)               'fe10'
(PID.TID 0000.0001)     ;
(PID.TID 0000.0001) PTRACERS_long_names = /* Tracer long name */
(PID.TID 0000.0001)               ''
(PID.TID 0000.0001)     ;
(PID.TID 0000.0001) PTRACERS_ioLabel = /* tracer IO Label */
(PID.TID 0000.0001)               '0L'
(PID.TID 0000.0001)     ;
(PID.TID 0000.0001) PTRACERS_advScheme = /* Advection Scheme */
(PID.TID 0000.0001)                      33
(PID.TID 0000.0001)     ;
(PID.TID 0000.0001) PTRACERS_SOM_Advection = /* tracer uses SOM advection scheme */
(PID.TID 0000.0001)                   F
(PID.TID 0000.0001)     ;
(PID.TID 0000.0001) PTRACERS_ImplVertAdv = /* implicit vert. advection flag */
(PID.TID 0000.0001)                   F
(PID.TID 0000.0001)     ;
(PID.TID 0000.0001) PTRACERS_diffKh = /* Laplacian Diffusivity */
(PID.TID 0000.0001)                 0.000000000000000E+00
(PID.TID 0000.0001)     ;
(PID.TID 0000.0001) PTRACERS_diffK4 = /* Biharmonic Diffusivity */
(PID.TID 0000.0001)                 0.000000000000000E+00
(PID.TID 0000.0001)     ;
(PID.TID 0000.0001) PTRACERS_diffKrNr = /* Vertical Diffusivity */
(PID.TID 0000.0001)    15 @  1.000000000000000E-05              /* K =  1: 15 */
(PID.TID 0000.0001)     ;
(PID.TID 0000.0001) PTRACERS_useGMRedi = /* apply GM-Redi */
(PID.TID 0000.0001)                   T
(PID.TID 0000.0001)     ;
(PID.TID 0000.0001) PTRACERS_useDWNSLP = /* apply DOWN-SLOPE Flow */
(PID.TID 0000.0001)                   F
(PID.TID 0000.0001)     ;
(PID.TID 0000.0001) PTRACERS_useKPP = /* apply KPP scheme */
(PID.TID 0000.0001)                   F
(PID.TID 0000.0001)     ;
(PID.TID 0000.0001) PTRACERS_ref = /* Reference vertical profile */
(PID.TID 0000.0001)    15 @  0.000000000000000E+00              /* K =  1: 15 */
(PID.TID 0000.0001)     ;
(PID.TID 0000.0001) PTRACERS_EvPrRn =/* tracer conc. in Evap. & Rain */
(PID.TID 0000.0001)                 1.234567000000000E+05
(PID.TID 0000.0001)     ;
(PID.TID 0000.0001)  -----------------------------------
(PID.TID 0000.0001)  tracer number :  138
(PID.TID 0000.0001) PTRACERS_names = /* Tracer short name */
(PID.TID 0000.0001)               'fe11'
(PID.TID 0000.0001)     ;
(PID.TID 0000.0001) PTRACERS_long_names = /* Tracer long name */
(PID.TID 0000.0001)               ''
(PID.TID 0000.0001)     ;
(PID.TID 0000.0001) PTRACERS_ioLabel = /* tracer IO Label */
(PID.TID 0000.0001)               '0M'
(PID.TID 0000.0001)     ;
(PID.TID 0000.0001) PTRACERS_advScheme = /* Advection Scheme */
(PID.TID 0000.0001)                      33
(PID.TID 0000.0001)     ;
(PID.TID 0000.0001) PTRACERS_SOM_Advection = /* tracer uses SOM advection scheme */
(PID.TID 0000.0001)                   F
(PID.TID 0000.0001)     ;
(PID.TID 0000.0001) PTRACERS_ImplVertAdv = /* implicit vert. advection flag */
(PID.TID 0000.0001)                   F
(PID.TID 0000.0001)     ;
(PID.TID 0000.0001) PTRACERS_diffKh = /* Laplacian Diffusivity */
(PID.TID 0000.0001)                 0.000000000000000E+00
(PID.TID 0000.0001)     ;
(PID.TID 0000.0001) PTRACERS_diffK4 = /* Biharmonic Diffusivity */
(PID.TID 0000.0001)                 0.000000000000000E+00
(PID.TID 0000.0001)     ;
(PID.TID 0000.0001) PTRACERS_diffKrNr = /* Vertical Diffusivity */
(PID.TID 0000.0001)    15 @  1.000000000000000E-05              /* K =  1: 15 */
(PID.TID 0000.0001)     ;
(PID.TID 0000.0001) PTRACERS_useGMRedi = /* apply GM-Redi */
(PID.TID 0000.0001)                   T
(PID.TID 0000.0001)     ;
(PID.TID 0000.0001) PTRACERS_useDWNSLP = /* apply DOWN-SLOPE Flow */
(PID.TID 0000.0001)                   F
(PID.TID 0000.0001)     ;
(PID.TID 0000.0001) PTRACERS_useKPP = /* apply KPP scheme */
(PID.TID 0000.0001)                   F
(PID.TID 0000.0001)     ;
(PID.TID 0000.0001) PTRACERS_ref = /* Reference vertical profile */
(PID.TID 0000.0001)    15 @  0.000000000000000E+00              /* K =  1: 15 */
(PID.TID 0000.0001)     ;
(PID.TID 0000.0001) PTRACERS_EvPrRn =/* tracer conc. in Evap. & Rain */
(PID.TID 0000.0001)                 1.234567000000000E+05
(PID.TID 0000.0001)     ;
(PID.TID 0000.0001)  -----------------------------------
(PID.TID 0000.0001)  tracer number :  139
(PID.TID 0000.0001) PTRACERS_names = /* Tracer short name */
(PID.TID 0000.0001)               'fe12'
(PID.TID 0000.0001)     ;
(PID.TID 0000.0001) PTRACERS_long_names = /* Tracer long name */
(PID.TID 0000.0001)               ''
(PID.TID 0000.0001)     ;
(PID.TID 0000.0001) PTRACERS_ioLabel = /* tracer IO Label */
(PID.TID 0000.0001)               '0N'
(PID.TID 0000.0001)     ;
(PID.TID 0000.0001) PTRACERS_advScheme = /* Advection Scheme */
(PID.TID 0000.0001)                      33
(PID.TID 0000.0001)     ;
(PID.TID 0000.0001) PTRACERS_SOM_Advection = /* tracer uses SOM advection scheme */
(PID.TID 0000.0001)                   F
(PID.TID 0000.0001)     ;
(PID.TID 0000.0001) PTRACERS_ImplVertAdv = /* implicit vert. advection flag */
(PID.TID 0000.0001)                   F
(PID.TID 0000.0001)     ;
(PID.TID 0000.0001) PTRACERS_diffKh = /* Laplacian Diffusivity */
(PID.TID 0000.0001)                 0.000000000000000E+00
(PID.TID 0000.0001)     ;
(PID.TID 0000.0001) PTRACERS_diffK4 = /* Biharmonic Diffusivity */
(PID.TID 0000.0001)                 0.000000000000000E+00
(PID.TID 0000.0001)     ;
(PID.TID 0000.0001) PTRACERS_diffKrNr = /* Vertical Diffusivity */
(PID.TID 0000.0001)    15 @  1.000000000000000E-05              /* K =  1: 15 */
(PID.TID 0000.0001)     ;
(PID.TID 0000.0001) PTRACERS_useGMRedi = /* apply GM-Redi */
(PID.TID 0000.0001)                   T
(PID.TID 0000.0001)     ;
(PID.TID 0000.0001) PTRACERS_useDWNSLP = /* apply DOWN-SLOPE Flow */
(PID.TID 0000.0001)                   F
(PID.TID 0000.0001)     ;
(PID.TID 0000.0001) PTRACERS_useKPP = /* apply KPP scheme */
(PID.TID 0000.0001)                   F
(PID.TID 0000.0001)     ;
(PID.TID 0000.0001) PTRACERS_ref = /* Reference vertical profile */
(PID.TID 0000.0001)    15 @  0.000000000000000E+00              /* K =  1: 15 */
(PID.TID 0000.0001)     ;
(PID.TID 0000.0001) PTRACERS_EvPrRn =/* tracer conc. in Evap. & Rain */
(PID.TID 0000.0001)                 1.234567000000000E+05
(PID.TID 0000.0001)     ;
(PID.TID 0000.0001)  -----------------------------------
(PID.TID 0000.0001)  tracer number :  140
(PID.TID 0000.0001) PTRACERS_names = /* Tracer short name */
(PID.TID 0000.0001)               'fe13'
(PID.TID 0000.0001)     ;
(PID.TID 0000.0001) PTRACERS_long_names = /* Tracer long name */
(PID.TID 0000.0001)               ''
(PID.TID 0000.0001)     ;
(PID.TID 0000.0001) PTRACERS_ioLabel = /* tracer IO Label */
(PID.TID 0000.0001)               '0O'
(PID.TID 0000.0001)     ;
(PID.TID 0000.0001) PTRACERS_advScheme = /* Advection Scheme */
(PID.TID 0000.0001)                      33
(PID.TID 0000.0001)     ;
(PID.TID 0000.0001) PTRACERS_SOM_Advection = /* tracer uses SOM advection scheme */
(PID.TID 0000.0001)                   F
(PID.TID 0000.0001)     ;
(PID.TID 0000.0001) PTRACERS_ImplVertAdv = /* implicit vert. advection flag */
(PID.TID 0000.0001)                   F
(PID.TID 0000.0001)     ;
(PID.TID 0000.0001) PTRACERS_diffKh = /* Laplacian Diffusivity */
(PID.TID 0000.0001)                 0.000000000000000E+00
(PID.TID 0000.0001)     ;
(PID.TID 0000.0001) PTRACERS_diffK4 = /* Biharmonic Diffusivity */
(PID.TID 0000.0001)                 0.000000000000000E+00
(PID.TID 0000.0001)     ;
(PID.TID 0000.0001) PTRACERS_diffKrNr = /* Vertical Diffusivity */
(PID.TID 0000.0001)    15 @  1.000000000000000E-05              /* K =  1: 15 */
(PID.TID 0000.0001)     ;
(PID.TID 0000.0001) PTRACERS_useGMRedi = /* apply GM-Redi */
(PID.TID 0000.0001)                   T
(PID.TID 0000.0001)     ;
(PID.TID 0000.0001) PTRACERS_useDWNSLP = /* apply DOWN-SLOPE Flow */
(PID.TID 0000.0001)                   F
(PID.TID 0000.0001)     ;
(PID.TID 0000.0001) PTRACERS_useKPP = /* apply KPP scheme */
(PID.TID 0000.0001)                   F
(PID.TID 0000.0001)     ;
(PID.TID 0000.0001) PTRACERS_ref = /* Reference vertical profile */
(PID.TID 0000.0001)    15 @  0.000000000000000E+00              /* K =  1: 15 */
(PID.TID 0000.0001)     ;
(PID.TID 0000.0001) PTRACERS_EvPrRn =/* tracer conc. in Evap. & Rain */
(PID.TID 0000.0001)                 1.234567000000000E+05
(PID.TID 0000.0001)     ;
(PID.TID 0000.0001)  -----------------------------------
(PID.TID 0000.0001)  tracer number :  141
(PID.TID 0000.0001) PTRACERS_names = /* Tracer short name */
(PID.TID 0000.0001)               'fe14'
(PID.TID 0000.0001)     ;
(PID.TID 0000.0001) PTRACERS_long_names = /* Tracer long name */
(PID.TID 0000.0001)               ''
(PID.TID 0000.0001)     ;
(PID.TID 0000.0001) PTRACERS_ioLabel = /* tracer IO Label */
(PID.TID 0000.0001)               '0P'
(PID.TID 0000.0001)     ;
(PID.TID 0000.0001) PTRACERS_advScheme = /* Advection Scheme */
(PID.TID 0000.0001)                      33
(PID.TID 0000.0001)     ;
(PID.TID 0000.0001) PTRACERS_SOM_Advection = /* tracer uses SOM advection scheme */
(PID.TID 0000.0001)                   F
(PID.TID 0000.0001)     ;
(PID.TID 0000.0001) PTRACERS_ImplVertAdv = /* implicit vert. advection flag */
(PID.TID 0000.0001)                   F
(PID.TID 0000.0001)     ;
(PID.TID 0000.0001) PTRACERS_diffKh = /* Laplacian Diffusivity */
(PID.TID 0000.0001)                 0.000000000000000E+00
(PID.TID 0000.0001)     ;
(PID.TID 0000.0001) PTRACERS_diffK4 = /* Biharmonic Diffusivity */
(PID.TID 0000.0001)                 0.000000000000000E+00
(PID.TID 0000.0001)     ;
(PID.TID 0000.0001) PTRACERS_diffKrNr = /* Vertical Diffusivity */
(PID.TID 0000.0001)    15 @  1.000000000000000E-05              /* K =  1: 15 */
(PID.TID 0000.0001)     ;
(PID.TID 0000.0001) PTRACERS_useGMRedi = /* apply GM-Redi */
(PID.TID 0000.0001)                   T
(PID.TID 0000.0001)     ;
(PID.TID 0000.0001) PTRACERS_useDWNSLP = /* apply DOWN-SLOPE Flow */
(PID.TID 0000.0001)                   F
(PID.TID 0000.0001)     ;
(PID.TID 0000.0001) PTRACERS_useKPP = /* apply KPP scheme */
(PID.TID 0000.0001)                   F
(PID.TID 0000.0001)     ;
(PID.TID 0000.0001) PTRACERS_ref = /* Reference vertical profile */
(PID.TID 0000.0001)    15 @  0.000000000000000E+00              /* K =  1: 15 */
(PID.TID 0000.0001)     ;
(PID.TID 0000.0001) PTRACERS_EvPrRn =/* tracer conc. in Evap. & Rain */
(PID.TID 0000.0001)                 1.234567000000000E+05
(PID.TID 0000.0001)     ;
(PID.TID 0000.0001)  -----------------------------------
(PID.TID 0000.0001)  tracer number :  142
(PID.TID 0000.0001) PTRACERS_names = /* Tracer short name */
(PID.TID 0000.0001)               'fe15'
(PID.TID 0000.0001)     ;
(PID.TID 0000.0001) PTRACERS_long_names = /* Tracer long name */
(PID.TID 0000.0001)               ''
(PID.TID 0000.0001)     ;
(PID.TID 0000.0001) PTRACERS_ioLabel = /* tracer IO Label */
(PID.TID 0000.0001)               '0Q'
(PID.TID 0000.0001)     ;
(PID.TID 0000.0001) PTRACERS_advScheme = /* Advection Scheme */
(PID.TID 0000.0001)                      33
(PID.TID 0000.0001)     ;
(PID.TID 0000.0001) PTRACERS_SOM_Advection = /* tracer uses SOM advection scheme */
(PID.TID 0000.0001)                   F
(PID.TID 0000.0001)     ;
(PID.TID 0000.0001) PTRACERS_ImplVertAdv = /* implicit vert. advection flag */
(PID.TID 0000.0001)                   F
(PID.TID 0000.0001)     ;
(PID.TID 0000.0001) PTRACERS_diffKh = /* Laplacian Diffusivity */
(PID.TID 0000.0001)                 0.000000000000000E+00
(PID.TID 0000.0001)     ;
(PID.TID 0000.0001) PTRACERS_diffK4 = /* Biharmonic Diffusivity */
(PID.TID 0000.0001)                 0.000000000000000E+00
(PID.TID 0000.0001)     ;
(PID.TID 0000.0001) PTRACERS_diffKrNr = /* Vertical Diffusivity */
(PID.TID 0000.0001)    15 @  1.000000000000000E-05              /* K =  1: 15 */
(PID.TID 0000.0001)     ;
(PID.TID 0000.0001) PTRACERS_useGMRedi = /* apply GM-Redi */
(PID.TID 0000.0001)                   T
(PID.TID 0000.0001)     ;
(PID.TID 0000.0001) PTRACERS_useDWNSLP = /* apply DOWN-SLOPE Flow */
(PID.TID 0000.0001)                   F
(PID.TID 0000.0001)     ;
(PID.TID 0000.0001) PTRACERS_useKPP = /* apply KPP scheme */
(PID.TID 0000.0001)                   F
(PID.TID 0000.0001)     ;
(PID.TID 0000.0001) PTRACERS_ref = /* Reference vertical profile */
(PID.TID 0000.0001)    15 @  0.000000000000000E+00              /* K =  1: 15 */
(PID.TID 0000.0001)     ;
(PID.TID 0000.0001) PTRACERS_EvPrRn =/* tracer conc. in Evap. & Rain */
(PID.TID 0000.0001)                 1.234567000000000E+05
(PID.TID 0000.0001)     ;
(PID.TID 0000.0001)  -----------------------------------
(PID.TID 0000.0001)  tracer number :  143
(PID.TID 0000.0001) PTRACERS_names = /* Tracer short name */
(PID.TID 0000.0001)               'fe16'
(PID.TID 0000.0001)     ;
(PID.TID 0000.0001) PTRACERS_long_names = /* Tracer long name */
(PID.TID 0000.0001)               ''
(PID.TID 0000.0001)     ;
(PID.TID 0000.0001) PTRACERS_ioLabel = /* tracer IO Label */
(PID.TID 0000.0001)               '0R'
(PID.TID 0000.0001)     ;
(PID.TID 0000.0001) PTRACERS_advScheme = /* Advection Scheme */
(PID.TID 0000.0001)                      33
(PID.TID 0000.0001)     ;
(PID.TID 0000.0001) PTRACERS_SOM_Advection = /* tracer uses SOM advection scheme */
(PID.TID 0000.0001)                   F
(PID.TID 0000.0001)     ;
(PID.TID 0000.0001) PTRACERS_ImplVertAdv = /* implicit vert. advection flag */
(PID.TID 0000.0001)                   F
(PID.TID 0000.0001)     ;
(PID.TID 0000.0001) PTRACERS_diffKh = /* Laplacian Diffusivity */
(PID.TID 0000.0001)                 0.000000000000000E+00
(PID.TID 0000.0001)     ;
(PID.TID 0000.0001) PTRACERS_diffK4 = /* Biharmonic Diffusivity */
(PID.TID 0000.0001)                 0.000000000000000E+00
(PID.TID 0000.0001)     ;
(PID.TID 0000.0001) PTRACERS_diffKrNr = /* Vertical Diffusivity */
(PID.TID 0000.0001)    15 @  1.000000000000000E-05              /* K =  1: 15 */
(PID.TID 0000.0001)     ;
(PID.TID 0000.0001) PTRACERS_useGMRedi = /* apply GM-Redi */
(PID.TID 0000.0001)                   T
(PID.TID 0000.0001)     ;
(PID.TID 0000.0001) PTRACERS_useDWNSLP = /* apply DOWN-SLOPE Flow */
(PID.TID 0000.0001)                   F
(PID.TID 0000.0001)     ;
(PID.TID 0000.0001) PTRACERS_useKPP = /* apply KPP scheme */
(PID.TID 0000.0001)                   F
(PID.TID 0000.0001)     ;
(PID.TID 0000.0001) PTRACERS_ref = /* Reference vertical profile */
(PID.TID 0000.0001)    15 @  0.000000000000000E+00              /* K =  1: 15 */
(PID.TID 0000.0001)     ;
(PID.TID 0000.0001) PTRACERS_EvPrRn =/* tracer conc. in Evap. & Rain */
(PID.TID 0000.0001)                 1.234567000000000E+05
(PID.TID 0000.0001)     ;
(PID.TID 0000.0001)  -----------------------------------
(PID.TID 0000.0001)  tracer number :  144
(PID.TID 0000.0001) PTRACERS_names = /* Tracer short name */
(PID.TID 0000.0001)               'fe17'
(PID.TID 0000.0001)     ;
(PID.TID 0000.0001) PTRACERS_long_names = /* Tracer long name */
(PID.TID 0000.0001)               ''
(PID.TID 0000.0001)     ;
(PID.TID 0000.0001) PTRACERS_ioLabel = /* tracer IO Label */
(PID.TID 0000.0001)               '0S'
(PID.TID 0000.0001)     ;
(PID.TID 0000.0001) PTRACERS_advScheme = /* Advection Scheme */
(PID.TID 0000.0001)                      33
(PID.TID 0000.0001)     ;
(PID.TID 0000.0001) PTRACERS_SOM_Advection = /* tracer uses SOM advection scheme */
(PID.TID 0000.0001)                   F
(PID.TID 0000.0001)     ;
(PID.TID 0000.0001) PTRACERS_ImplVertAdv = /* implicit vert. advection flag */
(PID.TID 0000.0001)                   F
(PID.TID 0000.0001)     ;
(PID.TID 0000.0001) PTRACERS_diffKh = /* Laplacian Diffusivity */
(PID.TID 0000.0001)                 0.000000000000000E+00
(PID.TID 0000.0001)     ;
(PID.TID 0000.0001) PTRACERS_diffK4 = /* Biharmonic Diffusivity */
(PID.TID 0000.0001)                 0.000000000000000E+00
(PID.TID 0000.0001)     ;
(PID.TID 0000.0001) PTRACERS_diffKrNr = /* Vertical Diffusivity */
(PID.TID 0000.0001)    15 @  1.000000000000000E-05              /* K =  1: 15 */
(PID.TID 0000.0001)     ;
(PID.TID 0000.0001) PTRACERS_useGMRedi = /* apply GM-Redi */
(PID.TID 0000.0001)                   T
(PID.TID 0000.0001)     ;
(PID.TID 0000.0001) PTRACERS_useDWNSLP = /* apply DOWN-SLOPE Flow */
(PID.TID 0000.0001)                   F
(PID.TID 0000.0001)     ;
(PID.TID 0000.0001) PTRACERS_useKPP = /* apply KPP scheme */
(PID.TID 0000.0001)                   F
(PID.TID 0000.0001)     ;
(PID.TID 0000.0001) PTRACERS_ref = /* Reference vertical profile */
(PID.TID 0000.0001)    15 @  0.000000000000000E+00              /* K =  1: 15 */
(PID.TID 0000.0001)     ;
(PID.TID 0000.0001) PTRACERS_EvPrRn =/* tracer conc. in Evap. & Rain */
(PID.TID 0000.0001)                 1.234567000000000E+05
(PID.TID 0000.0001)     ;
(PID.TID 0000.0001)  -----------------------------------
(PID.TID 0000.0001)  tracer number :  145
(PID.TID 0000.0001) PTRACERS_names = /* Tracer short name */
(PID.TID 0000.0001)               'fe18'
(PID.TID 0000.0001)     ;
(PID.TID 0000.0001) PTRACERS_long_names = /* Tracer long name */
(PID.TID 0000.0001)               ''
(PID.TID 0000.0001)     ;
(PID.TID 0000.0001) PTRACERS_ioLabel = /* tracer IO Label */
(PID.TID 0000.0001)               '0T'
(PID.TID 0000.0001)     ;
(PID.TID 0000.0001) PTRACERS_advScheme = /* Advection Scheme */
(PID.TID 0000.0001)                      33
(PID.TID 0000.0001)     ;
(PID.TID 0000.0001) PTRACERS_SOM_Advection = /* tracer uses SOM advection scheme */
(PID.TID 0000.0001)                   F
(PID.TID 0000.0001)     ;
(PID.TID 0000.0001) PTRACERS_ImplVertAdv = /* implicit vert. advection flag */
(PID.TID 0000.0001)                   F
(PID.TID 0000.0001)     ;
(PID.TID 0000.0001) PTRACERS_diffKh = /* Laplacian Diffusivity */
(PID.TID 0000.0001)                 0.000000000000000E+00
(PID.TID 0000.0001)     ;
(PID.TID 0000.0001) PTRACERS_diffK4 = /* Biharmonic Diffusivity */
(PID.TID 0000.0001)                 0.000000000000000E+00
(PID.TID 0000.0001)     ;
(PID.TID 0000.0001) PTRACERS_diffKrNr = /* Vertical Diffusivity */
(PID.TID 0000.0001)    15 @  1.000000000000000E-05              /* K =  1: 15 */
(PID.TID 0000.0001)     ;
(PID.TID 0000.0001) PTRACERS_useGMRedi = /* apply GM-Redi */
(PID.TID 0000.0001)                   T
(PID.TID 0000.0001)     ;
(PID.TID 0000.0001) PTRACERS_useDWNSLP = /* apply DOWN-SLOPE Flow */
(PID.TID 0000.0001)                   F
(PID.TID 0000.0001)     ;
(PID.TID 0000.0001) PTRACERS_useKPP = /* apply KPP scheme */
(PID.TID 0000.0001)                   F
(PID.TID 0000.0001)     ;
(PID.TID 0000.0001) PTRACERS_ref = /* Reference vertical profile */
(PID.TID 0000.0001)    15 @  0.000000000000000E+00              /* K =  1: 15 */
(PID.TID 0000.0001)     ;
(PID.TID 0000.0001) PTRACERS_EvPrRn =/* tracer conc. in Evap. & Rain */
(PID.TID 0000.0001)                 1.234567000000000E+05
(PID.TID 0000.0001)     ;
(PID.TID 0000.0001)  -----------------------------------
(PID.TID 0000.0001)  tracer number :  146
(PID.TID 0000.0001) PTRACERS_names = /* Tracer short name */
(PID.TID 0000.0001)               'fe19'
(PID.TID 0000.0001)     ;
(PID.TID 0000.0001) PTRACERS_long_names = /* Tracer long name */
(PID.TID 0000.0001)               ''
(PID.TID 0000.0001)     ;
(PID.TID 0000.0001) PTRACERS_ioLabel = /* tracer IO Label */
(PID.TID 0000.0001)               '0U'
(PID.TID 0000.0001)     ;
(PID.TID 0000.0001) PTRACERS_advScheme = /* Advection Scheme */
(PID.TID 0000.0001)                      33
(PID.TID 0000.0001)     ;
(PID.TID 0000.0001) PTRACERS_SOM_Advection = /* tracer uses SOM advection scheme */
(PID.TID 0000.0001)                   F
(PID.TID 0000.0001)     ;
(PID.TID 0000.0001) PTRACERS_ImplVertAdv = /* implicit vert. advection flag */
(PID.TID 0000.0001)                   F
(PID.TID 0000.0001)     ;
(PID.TID 0000.0001) PTRACERS_diffKh = /* Laplacian Diffusivity */
(PID.TID 0000.0001)                 0.000000000000000E+00
(PID.TID 0000.0001)     ;
(PID.TID 0000.0001) PTRACERS_diffK4 = /* Biharmonic Diffusivity */
(PID.TID 0000.0001)                 0.000000000000000E+00
(PID.TID 0000.0001)     ;
(PID.TID 0000.0001) PTRACERS_diffKrNr = /* Vertical Diffusivity */
(PID.TID 0000.0001)    15 @  1.000000000000000E-05              /* K =  1: 15 */
(PID.TID 0000.0001)     ;
(PID.TID 0000.0001) PTRACERS_useGMRedi = /* apply GM-Redi */
(PID.TID 0000.0001)                   T
(PID.TID 0000.0001)     ;
(PID.TID 0000.0001) PTRACERS_useDWNSLP = /* apply DOWN-SLOPE Flow */
(PID.TID 0000.0001)                   F
(PID.TID 0000.0001)     ;
(PID.TID 0000.0001) PTRACERS_useKPP = /* apply KPP scheme */
(PID.TID 0000.0001)                   F
(PID.TID 0000.0001)     ;
(PID.TID 0000.0001) PTRACERS_ref = /* Reference vertical profile */
(PID.TID 0000.0001)    15 @  0.000000000000000E+00              /* K =  1: 15 */
(PID.TID 0000.0001)     ;
(PID.TID 0000.0001) PTRACERS_EvPrRn =/* tracer conc. in Evap. & Rain */
(PID.TID 0000.0001)                 1.234567000000000E+05
(PID.TID 0000.0001)     ;
(PID.TID 0000.0001)  -----------------------------------
(PID.TID 0000.0001)  tracer number :  147
(PID.TID 0000.0001) PTRACERS_names = /* Tracer short name */
(PID.TID 0000.0001)               'fe20'
(PID.TID 0000.0001)     ;
(PID.TID 0000.0001) PTRACERS_long_names = /* Tracer long name */
(PID.TID 0000.0001)               ''
(PID.TID 0000.0001)     ;
(PID.TID 0000.0001) PTRACERS_ioLabel = /* tracer IO Label */
(PID.TID 0000.0001)               '0V'
(PID.TID 0000.0001)     ;
(PID.TID 0000.0001) PTRACERS_advScheme = /* Advection Scheme */
(PID.TID 0000.0001)                      33
(PID.TID 0000.0001)     ;
(PID.TID 0000.0001) PTRACERS_SOM_Advection = /* tracer uses SOM advection scheme */
(PID.TID 0000.0001)                   F
(PID.TID 0000.0001)     ;
(PID.TID 0000.0001) PTRACERS_ImplVertAdv = /* implicit vert. advection flag */
(PID.TID 0000.0001)                   F
(PID.TID 0000.0001)     ;
(PID.TID 0000.0001) PTRACERS_diffKh = /* Laplacian Diffusivity */
(PID.TID 0000.0001)                 0.000000000000000E+00
(PID.TID 0000.0001)     ;
(PID.TID 0000.0001) PTRACERS_diffK4 = /* Biharmonic Diffusivity */
(PID.TID 0000.0001)                 0.000000000000000E+00
(PID.TID 0000.0001)     ;
(PID.TID 0000.0001) PTRACERS_diffKrNr = /* Vertical Diffusivity */
(PID.TID 0000.0001)    15 @  1.000000000000000E-05              /* K =  1: 15 */
(PID.TID 0000.0001)     ;
(PID.TID 0000.0001) PTRACERS_useGMRedi = /* apply GM-Redi */
(PID.TID 0000.0001)                   T
(PID.TID 0000.0001)     ;
(PID.TID 0000.0001) PTRACERS_useDWNSLP = /* apply DOWN-SLOPE Flow */
(PID.TID 0000.0001)                   F
(PID.TID 0000.0001)     ;
(PID.TID 0000.0001) PTRACERS_useKPP = /* apply KPP scheme */
(PID.TID 0000.0001)                   F
(PID.TID 0000.0001)     ;
(PID.TID 0000.0001) PTRACERS_ref = /* Reference vertical profile */
(PID.TID 0000.0001)    15 @  0.000000000000000E+00              /* K =  1: 15 */
(PID.TID 0000.0001)     ;
(PID.TID 0000.0001) PTRACERS_EvPrRn =/* tracer conc. in Evap. & Rain */
(PID.TID 0000.0001)                 1.234567000000000E+05
(PID.TID 0000.0001)     ;
(PID.TID 0000.0001)  -----------------------------------
(PID.TID 0000.0001)  tracer number :  148
(PID.TID 0000.0001) PTRACERS_names = /* Tracer short name */
(PID.TID 0000.0001)               'fe21'
(PID.TID 0000.0001)     ;
(PID.TID 0000.0001) PTRACERS_long_names = /* Tracer long name */
(PID.TID 0000.0001)               ''
(PID.TID 0000.0001)     ;
(PID.TID 0000.0001) PTRACERS_ioLabel = /* tracer IO Label */
(PID.TID 0000.0001)               '0W'
(PID.TID 0000.0001)     ;
(PID.TID 0000.0001) PTRACERS_advScheme = /* Advection Scheme */
(PID.TID 0000.0001)                      33
(PID.TID 0000.0001)     ;
(PID.TID 0000.0001) PTRACERS_SOM_Advection = /* tracer uses SOM advection scheme */
(PID.TID 0000.0001)                   F
(PID.TID 0000.0001)     ;
(PID.TID 0000.0001) PTRACERS_ImplVertAdv = /* implicit vert. advection flag */
(PID.TID 0000.0001)                   F
(PID.TID 0000.0001)     ;
(PID.TID 0000.0001) PTRACERS_diffKh = /* Laplacian Diffusivity */
(PID.TID 0000.0001)                 0.000000000000000E+00
(PID.TID 0000.0001)     ;
(PID.TID 0000.0001) PTRACERS_diffK4 = /* Biharmonic Diffusivity */
(PID.TID 0000.0001)                 0.000000000000000E+00
(PID.TID 0000.0001)     ;
(PID.TID 0000.0001) PTRACERS_diffKrNr = /* Vertical Diffusivity */
(PID.TID 0000.0001)    15 @  1.000000000000000E-05              /* K =  1: 15 */
(PID.TID 0000.0001)     ;
(PID.TID 0000.0001) PTRACERS_useGMRedi = /* apply GM-Redi */
(PID.TID 0000.0001)                   T
(PID.TID 0000.0001)     ;
(PID.TID 0000.0001) PTRACERS_useDWNSLP = /* apply DOWN-SLOPE Flow */
(PID.TID 0000.0001)                   F
(PID.TID 0000.0001)     ;
(PID.TID 0000.0001) PTRACERS_useKPP = /* apply KPP scheme */
(PID.TID 0000.0001)                   F
(PID.TID 0000.0001)     ;
(PID.TID 0000.0001) PTRACERS_ref = /* Reference vertical profile */
(PID.TID 0000.0001)    15 @  0.000000000000000E+00              /* K =  1: 15 */
(PID.TID 0000.0001)     ;
(PID.TID 0000.0001) PTRACERS_EvPrRn =/* tracer conc. in Evap. & Rain */
(PID.TID 0000.0001)                 1.234567000000000E+05
(PID.TID 0000.0001)     ;
(PID.TID 0000.0001)  -----------------------------------
(PID.TID 0000.0001)  tracer number :  149
(PID.TID 0000.0001) PTRACERS_names = /* Tracer short name */
(PID.TID 0000.0001)               'fe22'
(PID.TID 0000.0001)     ;
(PID.TID 0000.0001) PTRACERS_long_names = /* Tracer long name */
(PID.TID 0000.0001)               ''
(PID.TID 0000.0001)     ;
(PID.TID 0000.0001) PTRACERS_ioLabel = /* tracer IO Label */
(PID.TID 0000.0001)               '0X'
(PID.TID 0000.0001)     ;
(PID.TID 0000.0001) PTRACERS_advScheme = /* Advection Scheme */
(PID.TID 0000.0001)                      33
(PID.TID 0000.0001)     ;
(PID.TID 0000.0001) PTRACERS_SOM_Advection = /* tracer uses SOM advection scheme */
(PID.TID 0000.0001)                   F
(PID.TID 0000.0001)     ;
(PID.TID 0000.0001) PTRACERS_ImplVertAdv = /* implicit vert. advection flag */
(PID.TID 0000.0001)                   F
(PID.TID 0000.0001)     ;
(PID.TID 0000.0001) PTRACERS_diffKh = /* Laplacian Diffusivity */
(PID.TID 0000.0001)                 0.000000000000000E+00
(PID.TID 0000.0001)     ;
(PID.TID 0000.0001) PTRACERS_diffK4 = /* Biharmonic Diffusivity */
(PID.TID 0000.0001)                 0.000000000000000E+00
(PID.TID 0000.0001)     ;
(PID.TID 0000.0001) PTRACERS_diffKrNr = /* Vertical Diffusivity */
(PID.TID 0000.0001)    15 @  1.000000000000000E-05              /* K =  1: 15 */
(PID.TID 0000.0001)     ;
(PID.TID 0000.0001) PTRACERS_useGMRedi = /* apply GM-Redi */
(PID.TID 0000.0001)                   T
(PID.TID 0000.0001)     ;
(PID.TID 0000.0001) PTRACERS_useDWNSLP = /* apply DOWN-SLOPE Flow */
(PID.TID 0000.0001)                   F
(PID.TID 0000.0001)     ;
(PID.TID 0000.0001) PTRACERS_useKPP = /* apply KPP scheme */
(PID.TID 0000.0001)                   F
(PID.TID 0000.0001)     ;
(PID.TID 0000.0001) PTRACERS_ref = /* Reference vertical profile */
(PID.TID 0000.0001)    15 @  0.000000000000000E+00              /* K =  1: 15 */
(PID.TID 0000.0001)     ;
(PID.TID 0000.0001) PTRACERS_EvPrRn =/* tracer conc. in Evap. & Rain */
(PID.TID 0000.0001)                 1.234567000000000E+05
(PID.TID 0000.0001)     ;
(PID.TID 0000.0001)  -----------------------------------
(PID.TID 0000.0001)  tracer number :  150
(PID.TID 0000.0001) PTRACERS_names = /* Tracer short name */
(PID.TID 0000.0001)               'fe23'
(PID.TID 0000.0001)     ;
(PID.TID 0000.0001) PTRACERS_long_names = /* Tracer long name */
(PID.TID 0000.0001)               ''
(PID.TID 0000.0001)     ;
(PID.TID 0000.0001) PTRACERS_ioLabel = /* tracer IO Label */
(PID.TID 0000.0001)               '0Y'
(PID.TID 0000.0001)     ;
(PID.TID 0000.0001) PTRACERS_advScheme = /* Advection Scheme */
(PID.TID 0000.0001)                      33
(PID.TID 0000.0001)     ;
(PID.TID 0000.0001) PTRACERS_SOM_Advection = /* tracer uses SOM advection scheme */
(PID.TID 0000.0001)                   F
(PID.TID 0000.0001)     ;
(PID.TID 0000.0001) PTRACERS_ImplVertAdv = /* implicit vert. advection flag */
(PID.TID 0000.0001)                   F
(PID.TID 0000.0001)     ;
(PID.TID 0000.0001) PTRACERS_diffKh = /* Laplacian Diffusivity */
(PID.TID 0000.0001)                 0.000000000000000E+00
(PID.TID 0000.0001)     ;
(PID.TID 0000.0001) PTRACERS_diffK4 = /* Biharmonic Diffusivity */
(PID.TID 0000.0001)                 0.000000000000000E+00
(PID.TID 0000.0001)     ;
(PID.TID 0000.0001) PTRACERS_diffKrNr = /* Vertical Diffusivity */
(PID.TID 0000.0001)    15 @  1.000000000000000E-05              /* K =  1: 15 */
(PID.TID 0000.0001)     ;
(PID.TID 0000.0001) PTRACERS_useGMRedi = /* apply GM-Redi */
(PID.TID 0000.0001)                   T
(PID.TID 0000.0001)     ;
(PID.TID 0000.0001) PTRACERS_useDWNSLP = /* apply DOWN-SLOPE Flow */
(PID.TID 0000.0001)                   F
(PID.TID 0000.0001)     ;
(PID.TID 0000.0001) PTRACERS_useKPP = /* apply KPP scheme */
(PID.TID 0000.0001)                   F
(PID.TID 0000.0001)     ;
(PID.TID 0000.0001) PTRACERS_ref = /* Reference vertical profile */
(PID.TID 0000.0001)    15 @  0.000000000000000E+00              /* K =  1: 15 */
(PID.TID 0000.0001)     ;
(PID.TID 0000.0001) PTRACERS_EvPrRn =/* tracer conc. in Evap. & Rain */
(PID.TID 0000.0001)                 1.234567000000000E+05
(PID.TID 0000.0001)     ;
(PID.TID 0000.0001)  -----------------------------------
(PID.TID 0000.0001)  tracer number :  151
(PID.TID 0000.0001) PTRACERS_names = /* Tracer short name */
(PID.TID 0000.0001)               'fe24'
(PID.TID 0000.0001)     ;
(PID.TID 0000.0001) PTRACERS_long_names = /* Tracer long name */
(PID.TID 0000.0001)               ''
(PID.TID 0000.0001)     ;
(PID.TID 0000.0001) PTRACERS_ioLabel = /* tracer IO Label */
(PID.TID 0000.0001)               '0Z'
(PID.TID 0000.0001)     ;
(PID.TID 0000.0001) PTRACERS_advScheme = /* Advection Scheme */
(PID.TID 0000.0001)                      33
(PID.TID 0000.0001)     ;
(PID.TID 0000.0001) PTRACERS_SOM_Advection = /* tracer uses SOM advection scheme */
(PID.TID 0000.0001)                   F
(PID.TID 0000.0001)     ;
(PID.TID 0000.0001) PTRACERS_ImplVertAdv = /* implicit vert. advection flag */
(PID.TID 0000.0001)                   F
(PID.TID 0000.0001)     ;
(PID.TID 0000.0001) PTRACERS_diffKh = /* Laplacian Diffusivity */
(PID.TID 0000.0001)                 0.000000000000000E+00
(PID.TID 0000.0001)     ;
(PID.TID 0000.0001) PTRACERS_diffK4 = /* Biharmonic Diffusivity */
(PID.TID 0000.0001)                 0.000000000000000E+00
(PID.TID 0000.0001)     ;
(PID.TID 0000.0001) PTRACERS_diffKrNr = /* Vertical Diffusivity */
(PID.TID 0000.0001)    15 @  1.000000000000000E-05              /* K =  1: 15 */
(PID.TID 0000.0001)     ;
(PID.TID 0000.0001) PTRACERS_useGMRedi = /* apply GM-Redi */
(PID.TID 0000.0001)                   T
(PID.TID 0000.0001)     ;
(PID.TID 0000.0001) PTRACERS_useDWNSLP = /* apply DOWN-SLOPE Flow */
(PID.TID 0000.0001)                   F
(PID.TID 0000.0001)     ;
(PID.TID 0000.0001) PTRACERS_useKPP = /* apply KPP scheme */
(PID.TID 0000.0001)                   F
(PID.TID 0000.0001)     ;
(PID.TID 0000.0001) PTRACERS_ref = /* Reference vertical profile */
(PID.TID 0000.0001)    15 @  0.000000000000000E+00              /* K =  1: 15 */
(PID.TID 0000.0001)     ;
(PID.TID 0000.0001) PTRACERS_EvPrRn =/* tracer conc. in Evap. & Rain */
(PID.TID 0000.0001)                 1.234567000000000E+05
(PID.TID 0000.0001)     ;
(PID.TID 0000.0001)  -----------------------------------
(PID.TID 0000.0001)  tracer number :  152
(PID.TID 0000.0001) PTRACERS_names = /* Tracer short name */
(PID.TID 0000.0001)               'fe25'
(PID.TID 0000.0001)     ;
(PID.TID 0000.0001) PTRACERS_long_names = /* Tracer long name */
(PID.TID 0000.0001)               ''
(PID.TID 0000.0001)     ;
(PID.TID 0000.0001) PTRACERS_ioLabel = /* tracer IO Label */
(PID.TID 0000.0001)               '1a'
(PID.TID 0000.0001)     ;
(PID.TID 0000.0001) PTRACERS_advScheme = /* Advection Scheme */
(PID.TID 0000.0001)                      33
(PID.TID 0000.0001)     ;
(PID.TID 0000.0001) PTRACERS_SOM_Advection = /* tracer uses SOM advection scheme */
(PID.TID 0000.0001)                   F
(PID.TID 0000.0001)     ;
(PID.TID 0000.0001) PTRACERS_ImplVertAdv = /* implicit vert. advection flag */
(PID.TID 0000.0001)                   F
(PID.TID 0000.0001)     ;
(PID.TID 0000.0001) PTRACERS_diffKh = /* Laplacian Diffusivity */
(PID.TID 0000.0001)                 0.000000000000000E+00
(PID.TID 0000.0001)     ;
(PID.TID 0000.0001) PTRACERS_diffK4 = /* Biharmonic Diffusivity */
(PID.TID 0000.0001)                 0.000000000000000E+00
(PID.TID 0000.0001)     ;
(PID.TID 0000.0001) PTRACERS_diffKrNr = /* Vertical Diffusivity */
(PID.TID 0000.0001)    15 @  1.000000000000000E-05              /* K =  1: 15 */
(PID.TID 0000.0001)     ;
(PID.TID 0000.0001) PTRACERS_useGMRedi = /* apply GM-Redi */
(PID.TID 0000.0001)                   T
(PID.TID 0000.0001)     ;
(PID.TID 0000.0001) PTRACERS_useDWNSLP = /* apply DOWN-SLOPE Flow */
(PID.TID 0000.0001)                   F
(PID.TID 0000.0001)     ;
(PID.TID 0000.0001) PTRACERS_useKPP = /* apply KPP scheme */
(PID.TID 0000.0001)                   F
(PID.TID 0000.0001)     ;
(PID.TID 0000.0001) PTRACERS_ref = /* Reference vertical profile */
(PID.TID 0000.0001)    15 @  0.000000000000000E+00              /* K =  1: 15 */
(PID.TID 0000.0001)     ;
(PID.TID 0000.0001) PTRACERS_EvPrRn =/* tracer conc. in Evap. & Rain */
(PID.TID 0000.0001)                 1.234567000000000E+05
(PID.TID 0000.0001)     ;
(PID.TID 0000.0001)  -----------------------------------
(PID.TID 0000.0001)  tracer number :  153
(PID.TID 0000.0001) PTRACERS_names = /* Tracer short name */
(PID.TID 0000.0001)               'fe26'
(PID.TID 0000.0001)     ;
(PID.TID 0000.0001) PTRACERS_long_names = /* Tracer long name */
(PID.TID 0000.0001)               ''
(PID.TID 0000.0001)     ;
(PID.TID 0000.0001) PTRACERS_ioLabel = /* tracer IO Label */
(PID.TID 0000.0001)               '1b'
(PID.TID 0000.0001)     ;
(PID.TID 0000.0001) PTRACERS_advScheme = /* Advection Scheme */
(PID.TID 0000.0001)                      33
(PID.TID 0000.0001)     ;
(PID.TID 0000.0001) PTRACERS_SOM_Advection = /* tracer uses SOM advection scheme */
(PID.TID 0000.0001)                   F
(PID.TID 0000.0001)     ;
(PID.TID 0000.0001) PTRACERS_ImplVertAdv = /* implicit vert. advection flag */
(PID.TID 0000.0001)                   F
(PID.TID 0000.0001)     ;
(PID.TID 0000.0001) PTRACERS_diffKh = /* Laplacian Diffusivity */
(PID.TID 0000.0001)                 0.000000000000000E+00
(PID.TID 0000.0001)     ;
(PID.TID 0000.0001) PTRACERS_diffK4 = /* Biharmonic Diffusivity */
(PID.TID 0000.0001)                 0.000000000000000E+00
(PID.TID 0000.0001)     ;
(PID.TID 0000.0001) PTRACERS_diffKrNr = /* Vertical Diffusivity */
(PID.TID 0000.0001)    15 @  1.000000000000000E-05              /* K =  1: 15 */
(PID.TID 0000.0001)     ;
(PID.TID 0000.0001) PTRACERS_useGMRedi = /* apply GM-Redi */
(PID.TID 0000.0001)                   T
(PID.TID 0000.0001)     ;
(PID.TID 0000.0001) PTRACERS_useDWNSLP = /* apply DOWN-SLOPE Flow */
(PID.TID 0000.0001)                   F
(PID.TID 0000.0001)     ;
(PID.TID 0000.0001) PTRACERS_useKPP = /* apply KPP scheme */
(PID.TID 0000.0001)                   F
(PID.TID 0000.0001)     ;
(PID.TID 0000.0001) PTRACERS_ref = /* Reference vertical profile */
(PID.TID 0000.0001)    15 @  0.000000000000000E+00              /* K =  1: 15 */
(PID.TID 0000.0001)     ;
(PID.TID 0000.0001) PTRACERS_EvPrRn =/* tracer conc. in Evap. & Rain */
(PID.TID 0000.0001)                 1.234567000000000E+05
(PID.TID 0000.0001)     ;
(PID.TID 0000.0001)  -----------------------------------
(PID.TID 0000.0001)  tracer number :  154
(PID.TID 0000.0001) PTRACERS_names = /* Tracer short name */
(PID.TID 0000.0001)               'fe27'
(PID.TID 0000.0001)     ;
(PID.TID 0000.0001) PTRACERS_long_names = /* Tracer long name */
(PID.TID 0000.0001)               ''
(PID.TID 0000.0001)     ;
(PID.TID 0000.0001) PTRACERS_ioLabel = /* tracer IO Label */
(PID.TID 0000.0001)               '1c'
(PID.TID 0000.0001)     ;
(PID.TID 0000.0001) PTRACERS_advScheme = /* Advection Scheme */
(PID.TID 0000.0001)                      33
(PID.TID 0000.0001)     ;
(PID.TID 0000.0001) PTRACERS_SOM_Advection = /* tracer uses SOM advection scheme */
(PID.TID 0000.0001)                   F
(PID.TID 0000.0001)     ;
(PID.TID 0000.0001) PTRACERS_ImplVertAdv = /* implicit vert. advection flag */
(PID.TID 0000.0001)                   F
(PID.TID 0000.0001)     ;
(PID.TID 0000.0001) PTRACERS_diffKh = /* Laplacian Diffusivity */
(PID.TID 0000.0001)                 0.000000000000000E+00
(PID.TID 0000.0001)     ;
(PID.TID 0000.0001) PTRACERS_diffK4 = /* Biharmonic Diffusivity */
(PID.TID 0000.0001)                 0.000000000000000E+00
(PID.TID 0000.0001)     ;
(PID.TID 0000.0001) PTRACERS_diffKrNr = /* Vertical Diffusivity */
(PID.TID 0000.0001)    15 @  1.000000000000000E-05              /* K =  1: 15 */
(PID.TID 0000.0001)     ;
(PID.TID 0000.0001) PTRACERS_useGMRedi = /* apply GM-Redi */
(PID.TID 0000.0001)                   T
(PID.TID 0000.0001)     ;
(PID.TID 0000.0001) PTRACERS_useDWNSLP = /* apply DOWN-SLOPE Flow */
(PID.TID 0000.0001)                   F
(PID.TID 0000.0001)     ;
(PID.TID 0000.0001) PTRACERS_useKPP = /* apply KPP scheme */
(PID.TID 0000.0001)                   F
(PID.TID 0000.0001)     ;
(PID.TID 0000.0001) PTRACERS_ref = /* Reference vertical profile */
(PID.TID 0000.0001)    15 @  0.000000000000000E+00              /* K =  1: 15 */
(PID.TID 0000.0001)     ;
(PID.TID 0000.0001) PTRACERS_EvPrRn =/* tracer conc. in Evap. & Rain */
(PID.TID 0000.0001)                 1.234567000000000E+05
(PID.TID 0000.0001)     ;
(PID.TID 0000.0001)  -----------------------------------
(PID.TID 0000.0001)  tracer number :  155
(PID.TID 0000.0001) PTRACERS_names = /* Tracer short name */
(PID.TID 0000.0001)               'fe28'
(PID.TID 0000.0001)     ;
(PID.TID 0000.0001) PTRACERS_long_names = /* Tracer long name */
(PID.TID 0000.0001)               ''
(PID.TID 0000.0001)     ;
(PID.TID 0000.0001) PTRACERS_ioLabel = /* tracer IO Label */
(PID.TID 0000.0001)               '1d'
(PID.TID 0000.0001)     ;
(PID.TID 0000.0001) PTRACERS_advScheme = /* Advection Scheme */
(PID.TID 0000.0001)                      33
(PID.TID 0000.0001)     ;
(PID.TID 0000.0001) PTRACERS_SOM_Advection = /* tracer uses SOM advection scheme */
(PID.TID 0000.0001)                   F
(PID.TID 0000.0001)     ;
(PID.TID 0000.0001) PTRACERS_ImplVertAdv = /* implicit vert. advection flag */
(PID.TID 0000.0001)                   F
(PID.TID 0000.0001)     ;
(PID.TID 0000.0001) PTRACERS_diffKh = /* Laplacian Diffusivity */
(PID.TID 0000.0001)                 0.000000000000000E+00
(PID.TID 0000.0001)     ;
(PID.TID 0000.0001) PTRACERS_diffK4 = /* Biharmonic Diffusivity */
(PID.TID 0000.0001)                 0.000000000000000E+00
(PID.TID 0000.0001)     ;
(PID.TID 0000.0001) PTRACERS_diffKrNr = /* Vertical Diffusivity */
(PID.TID 0000.0001)    15 @  1.000000000000000E-05              /* K =  1: 15 */
(PID.TID 0000.0001)     ;
(PID.TID 0000.0001) PTRACERS_useGMRedi = /* apply GM-Redi */
(PID.TID 0000.0001)                   T
(PID.TID 0000.0001)     ;
(PID.TID 0000.0001) PTRACERS_useDWNSLP = /* apply DOWN-SLOPE Flow */
(PID.TID 0000.0001)                   F
(PID.TID 0000.0001)     ;
(PID.TID 0000.0001) PTRACERS_useKPP = /* apply KPP scheme */
(PID.TID 0000.0001)                   F
(PID.TID 0000.0001)     ;
(PID.TID 0000.0001) PTRACERS_ref = /* Reference vertical profile */
(PID.TID 0000.0001)    15 @  0.000000000000000E+00              /* K =  1: 15 */
(PID.TID 0000.0001)     ;
(PID.TID 0000.0001) PTRACERS_EvPrRn =/* tracer conc. in Evap. & Rain */
(PID.TID 0000.0001)                 1.234567000000000E+05
(PID.TID 0000.0001)     ;
(PID.TID 0000.0001)  -----------------------------------
(PID.TID 0000.0001)  tracer number :  156
(PID.TID 0000.0001) PTRACERS_names = /* Tracer short name */
(PID.TID 0000.0001)               'fe29'
(PID.TID 0000.0001)     ;
(PID.TID 0000.0001) PTRACERS_long_names = /* Tracer long name */
(PID.TID 0000.0001)               ''
(PID.TID 0000.0001)     ;
(PID.TID 0000.0001) PTRACERS_ioLabel = /* tracer IO Label */
(PID.TID 0000.0001)               '1e'
(PID.TID 0000.0001)     ;
(PID.TID 0000.0001) PTRACERS_advScheme = /* Advection Scheme */
(PID.TID 0000.0001)                      33
(PID.TID 0000.0001)     ;
(PID.TID 0000.0001) PTRACERS_SOM_Advection = /* tracer uses SOM advection scheme */
(PID.TID 0000.0001)                   F
(PID.TID 0000.0001)     ;
(PID.TID 0000.0001) PTRACERS_ImplVertAdv = /* implicit vert. advection flag */
(PID.TID 0000.0001)                   F
(PID.TID 0000.0001)     ;
(PID.TID 0000.0001) PTRACERS_diffKh = /* Laplacian Diffusivity */
(PID.TID 0000.0001)                 0.000000000000000E+00
(PID.TID 0000.0001)     ;
(PID.TID 0000.0001) PTRACERS_diffK4 = /* Biharmonic Diffusivity */
(PID.TID 0000.0001)                 0.000000000000000E+00
(PID.TID 0000.0001)     ;
(PID.TID 0000.0001) PTRACERS_diffKrNr = /* Vertical Diffusivity */
(PID.TID 0000.0001)    15 @  1.000000000000000E-05              /* K =  1: 15 */
(PID.TID 0000.0001)     ;
(PID.TID 0000.0001) PTRACERS_useGMRedi = /* apply GM-Redi */
(PID.TID 0000.0001)                   T
(PID.TID 0000.0001)     ;
(PID.TID 0000.0001) PTRACERS_useDWNSLP = /* apply DOWN-SLOPE Flow */
(PID.TID 0000.0001)                   F
(PID.TID 0000.0001)     ;
(PID.TID 0000.0001) PTRACERS_useKPP = /* apply KPP scheme */
(PID.TID 0000.0001)                   F
(PID.TID 0000.0001)     ;
(PID.TID 0000.0001) PTRACERS_ref = /* Reference vertical profile */
(PID.TID 0000.0001)    15 @  0.000000000000000E+00              /* K =  1: 15 */
(PID.TID 0000.0001)     ;
(PID.TID 0000.0001) PTRACERS_EvPrRn =/* tracer conc. in Evap. & Rain */
(PID.TID 0000.0001)                 1.234567000000000E+05
(PID.TID 0000.0001)     ;
(PID.TID 0000.0001)  -----------------------------------
(PID.TID 0000.0001)  tracer number :  157
(PID.TID 0000.0001) PTRACERS_names = /* Tracer short name */
(PID.TID 0000.0001)               'fe30'
(PID.TID 0000.0001)     ;
(PID.TID 0000.0001) PTRACERS_long_names = /* Tracer long name */
(PID.TID 0000.0001)               ''
(PID.TID 0000.0001)     ;
(PID.TID 0000.0001) PTRACERS_ioLabel = /* tracer IO Label */
(PID.TID 0000.0001)               '1f'
(PID.TID 0000.0001)     ;
(PID.TID 0000.0001) PTRACERS_advScheme = /* Advection Scheme */
(PID.TID 0000.0001)                      33
(PID.TID 0000.0001)     ;
(PID.TID 0000.0001) PTRACERS_SOM_Advection = /* tracer uses SOM advection scheme */
(PID.TID 0000.0001)                   F
(PID.TID 0000.0001)     ;
(PID.TID 0000.0001) PTRACERS_ImplVertAdv = /* implicit vert. advection flag */
(PID.TID 0000.0001)                   F
(PID.TID 0000.0001)     ;
(PID.TID 0000.0001) PTRACERS_diffKh = /* Laplacian Diffusivity */
(PID.TID 0000.0001)                 0.000000000000000E+00
(PID.TID 0000.0001)     ;
(PID.TID 0000.0001) PTRACERS_diffK4 = /* Biharmonic Diffusivity */
(PID.TID 0000.0001)                 0.000000000000000E+00
(PID.TID 0000.0001)     ;
(PID.TID 0000.0001) PTRACERS_diffKrNr = /* Vertical Diffusivity */
(PID.TID 0000.0001)    15 @  1.000000000000000E-05              /* K =  1: 15 */
(PID.TID 0000.0001)     ;
(PID.TID 0000.0001) PTRACERS_useGMRedi = /* apply GM-Redi */
(PID.TID 0000.0001)                   T
(PID.TID 0000.0001)     ;
(PID.TID 0000.0001) PTRACERS_useDWNSLP = /* apply DOWN-SLOPE Flow */
(PID.TID 0000.0001)                   F
(PID.TID 0000.0001)     ;
(PID.TID 0000.0001) PTRACERS_useKPP = /* apply KPP scheme */
(PID.TID 0000.0001)                   F
(PID.TID 0000.0001)     ;
(PID.TID 0000.0001) PTRACERS_ref = /* Reference vertical profile */
(PID.TID 0000.0001)    15 @  0.000000000000000E+00              /* K =  1: 15 */
(PID.TID 0000.0001)     ;
(PID.TID 0000.0001) PTRACERS_EvPrRn =/* tracer conc. in Evap. & Rain */
(PID.TID 0000.0001)                 1.234567000000000E+05
(PID.TID 0000.0001)     ;
(PID.TID 0000.0001)  -----------------------------------
(PID.TID 0000.0001)  tracer number :  158
(PID.TID 0000.0001) PTRACERS_names = /* Tracer short name */
(PID.TID 0000.0001)               'fe31'
(PID.TID 0000.0001)     ;
(PID.TID 0000.0001) PTRACERS_long_names = /* Tracer long name */
(PID.TID 0000.0001)               ''
(PID.TID 0000.0001)     ;
(PID.TID 0000.0001) PTRACERS_ioLabel = /* tracer IO Label */
(PID.TID 0000.0001)               '1g'
(PID.TID 0000.0001)     ;
(PID.TID 0000.0001) PTRACERS_advScheme = /* Advection Scheme */
(PID.TID 0000.0001)                      33
(PID.TID 0000.0001)     ;
(PID.TID 0000.0001) PTRACERS_SOM_Advection = /* tracer uses SOM advection scheme */
(PID.TID 0000.0001)                   F
(PID.TID 0000.0001)     ;
(PID.TID 0000.0001) PTRACERS_ImplVertAdv = /* implicit vert. advection flag */
(PID.TID 0000.0001)                   F
(PID.TID 0000.0001)     ;
(PID.TID 0000.0001) PTRACERS_diffKh = /* Laplacian Diffusivity */
(PID.TID 0000.0001)                 0.000000000000000E+00
(PID.TID 0000.0001)     ;
(PID.TID 0000.0001) PTRACERS_diffK4 = /* Biharmonic Diffusivity */
(PID.TID 0000.0001)                 0.000000000000000E+00
(PID.TID 0000.0001)     ;
(PID.TID 0000.0001) PTRACERS_diffKrNr = /* Vertical Diffusivity */
(PID.TID 0000.0001)    15 @  1.000000000000000E-05              /* K =  1: 15 */
(PID.TID 0000.0001)     ;
(PID.TID 0000.0001) PTRACERS_useGMRedi = /* apply GM-Redi */
(PID.TID 0000.0001)                   T
(PID.TID 0000.0001)     ;
(PID.TID 0000.0001) PTRACERS_useDWNSLP = /* apply DOWN-SLOPE Flow */
(PID.TID 0000.0001)                   F
(PID.TID 0000.0001)     ;
(PID.TID 0000.0001) PTRACERS_useKPP = /* apply KPP scheme */
(PID.TID 0000.0001)                   F
(PID.TID 0000.0001)     ;
(PID.TID 0000.0001) PTRACERS_ref = /* Reference vertical profile */
(PID.TID 0000.0001)    15 @  0.000000000000000E+00              /* K =  1: 15 */
(PID.TID 0000.0001)     ;
(PID.TID 0000.0001) PTRACERS_EvPrRn =/* tracer conc. in Evap. & Rain */
(PID.TID 0000.0001)                 1.234567000000000E+05
(PID.TID 0000.0001)     ;
(PID.TID 0000.0001)  -----------------------------------
(PID.TID 0000.0001)  tracer number :  159
(PID.TID 0000.0001) PTRACERS_names = /* Tracer short name */
(PID.TID 0000.0001)               'fe32'
(PID.TID 0000.0001)     ;
(PID.TID 0000.0001) PTRACERS_long_names = /* Tracer long name */
(PID.TID 0000.0001)               ''
(PID.TID 0000.0001)     ;
(PID.TID 0000.0001) PTRACERS_ioLabel = /* tracer IO Label */
(PID.TID 0000.0001)               '1h'
(PID.TID 0000.0001)     ;
(PID.TID 0000.0001) PTRACERS_advScheme = /* Advection Scheme */
(PID.TID 0000.0001)                      33
(PID.TID 0000.0001)     ;
(PID.TID 0000.0001) PTRACERS_SOM_Advection = /* tracer uses SOM advection scheme */
(PID.TID 0000.0001)                   F
(PID.TID 0000.0001)     ;
(PID.TID 0000.0001) PTRACERS_ImplVertAdv = /* implicit vert. advection flag */
(PID.TID 0000.0001)                   F
(PID.TID 0000.0001)     ;
(PID.TID 0000.0001) PTRACERS_diffKh = /* Laplacian Diffusivity */
(PID.TID 0000.0001)                 0.000000000000000E+00
(PID.TID 0000.0001)     ;
(PID.TID 0000.0001) PTRACERS_diffK4 = /* Biharmonic Diffusivity */
(PID.TID 0000.0001)                 0.000000000000000E+00
(PID.TID 0000.0001)     ;
(PID.TID 0000.0001) PTRACERS_diffKrNr = /* Vertical Diffusivity */
(PID.TID 0000.0001)    15 @  1.000000000000000E-05              /* K =  1: 15 */
(PID.TID 0000.0001)     ;
(PID.TID 0000.0001) PTRACERS_useGMRedi = /* apply GM-Redi */
(PID.TID 0000.0001)                   T
(PID.TID 0000.0001)     ;
(PID.TID 0000.0001) PTRACERS_useDWNSLP = /* apply DOWN-SLOPE Flow */
(PID.TID 0000.0001)                   F
(PID.TID 0000.0001)     ;
(PID.TID 0000.0001) PTRACERS_useKPP = /* apply KPP scheme */
(PID.TID 0000.0001)                   F
(PID.TID 0000.0001)     ;
(PID.TID 0000.0001) PTRACERS_ref = /* Reference vertical profile */
(PID.TID 0000.0001)    15 @  0.000000000000000E+00              /* K =  1: 15 */
(PID.TID 0000.0001)     ;
(PID.TID 0000.0001) PTRACERS_EvPrRn =/* tracer conc. in Evap. & Rain */
(PID.TID 0000.0001)                 1.234567000000000E+05
(PID.TID 0000.0001)     ;
(PID.TID 0000.0001)  -----------------------------------
(PID.TID 0000.0001)  tracer number :  160
(PID.TID 0000.0001) PTRACERS_names = /* Tracer short name */
(PID.TID 0000.0001)               'fe33'
(PID.TID 0000.0001)     ;
(PID.TID 0000.0001) PTRACERS_long_names = /* Tracer long name */
(PID.TID 0000.0001)               ''
(PID.TID 0000.0001)     ;
(PID.TID 0000.0001) PTRACERS_ioLabel = /* tracer IO Label */
(PID.TID 0000.0001)               '1i'
(PID.TID 0000.0001)     ;
(PID.TID 0000.0001) PTRACERS_advScheme = /* Advection Scheme */
(PID.TID 0000.0001)                      33
(PID.TID 0000.0001)     ;
(PID.TID 0000.0001) PTRACERS_SOM_Advection = /* tracer uses SOM advection scheme */
(PID.TID 0000.0001)                   F
(PID.TID 0000.0001)     ;
(PID.TID 0000.0001) PTRACERS_ImplVertAdv = /* implicit vert. advection flag */
(PID.TID 0000.0001)                   F
(PID.TID 0000.0001)     ;
(PID.TID 0000.0001) PTRACERS_diffKh = /* Laplacian Diffusivity */
(PID.TID 0000.0001)                 0.000000000000000E+00
(PID.TID 0000.0001)     ;
(PID.TID 0000.0001) PTRACERS_diffK4 = /* Biharmonic Diffusivity */
(PID.TID 0000.0001)                 0.000000000000000E+00
(PID.TID 0000.0001)     ;
(PID.TID 0000.0001) PTRACERS_diffKrNr = /* Vertical Diffusivity */
(PID.TID 0000.0001)    15 @  1.000000000000000E-05              /* K =  1: 15 */
(PID.TID 0000.0001)     ;
(PID.TID 0000.0001) PTRACERS_useGMRedi = /* apply GM-Redi */
(PID.TID 0000.0001)                   T
(PID.TID 0000.0001)     ;
(PID.TID 0000.0001) PTRACERS_useDWNSLP = /* apply DOWN-SLOPE Flow */
(PID.TID 0000.0001)                   F
(PID.TID 0000.0001)     ;
(PID.TID 0000.0001) PTRACERS_useKPP = /* apply KPP scheme */
(PID.TID 0000.0001)                   F
(PID.TID 0000.0001)     ;
(PID.TID 0000.0001) PTRACERS_ref = /* Reference vertical profile */
(PID.TID 0000.0001)    15 @  0.000000000000000E+00              /* K =  1: 15 */
(PID.TID 0000.0001)     ;
(PID.TID 0000.0001) PTRACERS_EvPrRn =/* tracer conc. in Evap. & Rain */
(PID.TID 0000.0001)                 1.234567000000000E+05
(PID.TID 0000.0001)     ;
(PID.TID 0000.0001)  -----------------------------------
(PID.TID 0000.0001)  tracer number :  161
(PID.TID 0000.0001) PTRACERS_names = /* Tracer short name */
(PID.TID 0000.0001)               'fe34'
(PID.TID 0000.0001)     ;
(PID.TID 0000.0001) PTRACERS_long_names = /* Tracer long name */
(PID.TID 0000.0001)               ''
(PID.TID 0000.0001)     ;
(PID.TID 0000.0001) PTRACERS_ioLabel = /* tracer IO Label */
(PID.TID 0000.0001)               '1j'
(PID.TID 0000.0001)     ;
(PID.TID 0000.0001) PTRACERS_advScheme = /* Advection Scheme */
(PID.TID 0000.0001)                      33
(PID.TID 0000.0001)     ;
(PID.TID 0000.0001) PTRACERS_SOM_Advection = /* tracer uses SOM advection scheme */
(PID.TID 0000.0001)                   F
(PID.TID 0000.0001)     ;
(PID.TID 0000.0001) PTRACERS_ImplVertAdv = /* implicit vert. advection flag */
(PID.TID 0000.0001)                   F
(PID.TID 0000.0001)     ;
(PID.TID 0000.0001) PTRACERS_diffKh = /* Laplacian Diffusivity */
(PID.TID 0000.0001)                 0.000000000000000E+00
(PID.TID 0000.0001)     ;
(PID.TID 0000.0001) PTRACERS_diffK4 = /* Biharmonic Diffusivity */
(PID.TID 0000.0001)                 0.000000000000000E+00
(PID.TID 0000.0001)     ;
(PID.TID 0000.0001) PTRACERS_diffKrNr = /* Vertical Diffusivity */
(PID.TID 0000.0001)    15 @  1.000000000000000E-05              /* K =  1: 15 */
(PID.TID 0000.0001)     ;
(PID.TID 0000.0001) PTRACERS_useGMRedi = /* apply GM-Redi */
(PID.TID 0000.0001)                   T
(PID.TID 0000.0001)     ;
(PID.TID 0000.0001) PTRACERS_useDWNSLP = /* apply DOWN-SLOPE Flow */
(PID.TID 0000.0001)                   F
(PID.TID 0000.0001)     ;
(PID.TID 0000.0001) PTRACERS_useKPP = /* apply KPP scheme */
(PID.TID 0000.0001)                   F
(PID.TID 0000.0001)     ;
(PID.TID 0000.0001) PTRACERS_ref = /* Reference vertical profile */
(PID.TID 0000.0001)    15 @  0.000000000000000E+00              /* K =  1: 15 */
(PID.TID 0000.0001)     ;
(PID.TID 0000.0001) PTRACERS_EvPrRn =/* tracer conc. in Evap. & Rain */
(PID.TID 0000.0001)                 1.234567000000000E+05
(PID.TID 0000.0001)     ;
(PID.TID 0000.0001)  -----------------------------------
(PID.TID 0000.0001)  tracer number :  162
(PID.TID 0000.0001) PTRACERS_names = /* Tracer short name */
(PID.TID 0000.0001)               'fe35'
(PID.TID 0000.0001)     ;
(PID.TID 0000.0001) PTRACERS_long_names = /* Tracer long name */
(PID.TID 0000.0001)               ''
(PID.TID 0000.0001)     ;
(PID.TID 0000.0001) PTRACERS_ioLabel = /* tracer IO Label */
(PID.TID 0000.0001)               '1k'
(PID.TID 0000.0001)     ;
(PID.TID 0000.0001) PTRACERS_advScheme = /* Advection Scheme */
(PID.TID 0000.0001)                      33
(PID.TID 0000.0001)     ;
(PID.TID 0000.0001) PTRACERS_SOM_Advection = /* tracer uses SOM advection scheme */
(PID.TID 0000.0001)                   F
(PID.TID 0000.0001)     ;
(PID.TID 0000.0001) PTRACERS_ImplVertAdv = /* implicit vert. advection flag */
(PID.TID 0000.0001)                   F
(PID.TID 0000.0001)     ;
(PID.TID 0000.0001) PTRACERS_diffKh = /* Laplacian Diffusivity */
(PID.TID 0000.0001)                 0.000000000000000E+00
(PID.TID 0000.0001)     ;
(PID.TID 0000.0001) PTRACERS_diffK4 = /* Biharmonic Diffusivity */
(PID.TID 0000.0001)                 0.000000000000000E+00
(PID.TID 0000.0001)     ;
(PID.TID 0000.0001) PTRACERS_diffKrNr = /* Vertical Diffusivity */
(PID.TID 0000.0001)    15 @  1.000000000000000E-05              /* K =  1: 15 */
(PID.TID 0000.0001)     ;
(PID.TID 0000.0001) PTRACERS_useGMRedi = /* apply GM-Redi */
(PID.TID 0000.0001)                   T
(PID.TID 0000.0001)     ;
(PID.TID 0000.0001) PTRACERS_useDWNSLP = /* apply DOWN-SLOPE Flow */
(PID.TID 0000.0001)                   F
(PID.TID 0000.0001)     ;
(PID.TID 0000.0001) PTRACERS_useKPP = /* apply KPP scheme */
(PID.TID 0000.0001)                   F
(PID.TID 0000.0001)     ;
(PID.TID 0000.0001) PTRACERS_ref = /* Reference vertical profile */
(PID.TID 0000.0001)    15 @  0.000000000000000E+00              /* K =  1: 15 */
(PID.TID 0000.0001)     ;
(PID.TID 0000.0001) PTRACERS_EvPrRn =/* tracer conc. in Evap. & Rain */
(PID.TID 0000.0001)                 1.234567000000000E+05
(PID.TID 0000.0001)     ;
(PID.TID 0000.0001)  -----------------------------------
(PID.TID 0000.0001)  tracer number :  163
(PID.TID 0000.0001) PTRACERS_names = /* Tracer short name */
(PID.TID 0000.0001)               'fe36'
(PID.TID 0000.0001)     ;
(PID.TID 0000.0001) PTRACERS_long_names = /* Tracer long name */
(PID.TID 0000.0001)               ''
(PID.TID 0000.0001)     ;
(PID.TID 0000.0001) PTRACERS_ioLabel = /* tracer IO Label */
(PID.TID 0000.0001)               '1l'
(PID.TID 0000.0001)     ;
(PID.TID 0000.0001) PTRACERS_advScheme = /* Advection Scheme */
(PID.TID 0000.0001)                      33
(PID.TID 0000.0001)     ;
(PID.TID 0000.0001) PTRACERS_SOM_Advection = /* tracer uses SOM advection scheme */
(PID.TID 0000.0001)                   F
(PID.TID 0000.0001)     ;
(PID.TID 0000.0001) PTRACERS_ImplVertAdv = /* implicit vert. advection flag */
(PID.TID 0000.0001)                   F
(PID.TID 0000.0001)     ;
(PID.TID 0000.0001) PTRACERS_diffKh = /* Laplacian Diffusivity */
(PID.TID 0000.0001)                 0.000000000000000E+00
(PID.TID 0000.0001)     ;
(PID.TID 0000.0001) PTRACERS_diffK4 = /* Biharmonic Diffusivity */
(PID.TID 0000.0001)                 0.000000000000000E+00
(PID.TID 0000.0001)     ;
(PID.TID 0000.0001) PTRACERS_diffKrNr = /* Vertical Diffusivity */
(PID.TID 0000.0001)    15 @  1.000000000000000E-05              /* K =  1: 15 */
(PID.TID 0000.0001)     ;
(PID.TID 0000.0001) PTRACERS_useGMRedi = /* apply GM-Redi */
(PID.TID 0000.0001)                   T
(PID.TID 0000.0001)     ;
(PID.TID 0000.0001) PTRACERS_useDWNSLP = /* apply DOWN-SLOPE Flow */
(PID.TID 0000.0001)                   F
(PID.TID 0000.0001)     ;
(PID.TID 0000.0001) PTRACERS_useKPP = /* apply KPP scheme */
(PID.TID 0000.0001)                   F
(PID.TID 0000.0001)     ;
(PID.TID 0000.0001) PTRACERS_ref = /* Reference vertical profile */
(PID.TID 0000.0001)    15 @  0.000000000000000E+00              /* K =  1: 15 */
(PID.TID 0000.0001)     ;
(PID.TID 0000.0001) PTRACERS_EvPrRn =/* tracer conc. in Evap. & Rain */
(PID.TID 0000.0001)                 1.234567000000000E+05
(PID.TID 0000.0001)     ;
(PID.TID 0000.0001)  -----------------------------------
(PID.TID 0000.0001)  tracer number :  164
(PID.TID 0000.0001) PTRACERS_names = /* Tracer short name */
(PID.TID 0000.0001)               'fe37'
(PID.TID 0000.0001)     ;
(PID.TID 0000.0001) PTRACERS_long_names = /* Tracer long name */
(PID.TID 0000.0001)               ''
(PID.TID 0000.0001)     ;
(PID.TID 0000.0001) PTRACERS_ioLabel = /* tracer IO Label */
(PID.TID 0000.0001)               '1m'
(PID.TID 0000.0001)     ;
(PID.TID 0000.0001) PTRACERS_advScheme = /* Advection Scheme */
(PID.TID 0000.0001)                      33
(PID.TID 0000.0001)     ;
(PID.TID 0000.0001) PTRACERS_SOM_Advection = /* tracer uses SOM advection scheme */
(PID.TID 0000.0001)                   F
(PID.TID 0000.0001)     ;
(PID.TID 0000.0001) PTRACERS_ImplVertAdv = /* implicit vert. advection flag */
(PID.TID 0000.0001)                   F
(PID.TID 0000.0001)     ;
(PID.TID 0000.0001) PTRACERS_diffKh = /* Laplacian Diffusivity */
(PID.TID 0000.0001)                 0.000000000000000E+00
(PID.TID 0000.0001)     ;
(PID.TID 0000.0001) PTRACERS_diffK4 = /* Biharmonic Diffusivity */
(PID.TID 0000.0001)                 0.000000000000000E+00
(PID.TID 0000.0001)     ;
(PID.TID 0000.0001) PTRACERS_diffKrNr = /* Vertical Diffusivity */
(PID.TID 0000.0001)    15 @  1.000000000000000E-05              /* K =  1: 15 */
(PID.TID 0000.0001)     ;
(PID.TID 0000.0001) PTRACERS_useGMRedi = /* apply GM-Redi */
(PID.TID 0000.0001)                   T
(PID.TID 0000.0001)     ;
(PID.TID 0000.0001) PTRACERS_useDWNSLP = /* apply DOWN-SLOPE Flow */
(PID.TID 0000.0001)                   F
(PID.TID 0000.0001)     ;
(PID.TID 0000.0001) PTRACERS_useKPP = /* apply KPP scheme */
(PID.TID 0000.0001)                   F
(PID.TID 0000.0001)     ;
(PID.TID 0000.0001) PTRACERS_ref = /* Reference vertical profile */
(PID.TID 0000.0001)    15 @  0.000000000000000E+00              /* K =  1: 15 */
(PID.TID 0000.0001)     ;
(PID.TID 0000.0001) PTRACERS_EvPrRn =/* tracer conc. in Evap. & Rain */
(PID.TID 0000.0001)                 1.234567000000000E+05
(PID.TID 0000.0001)     ;
(PID.TID 0000.0001)  -----------------------------------
(PID.TID 0000.0001)  tracer number :  165
(PID.TID 0000.0001) PTRACERS_names = /* Tracer short name */
(PID.TID 0000.0001)               'fe38'
(PID.TID 0000.0001)     ;
(PID.TID 0000.0001) PTRACERS_long_names = /* Tracer long name */
(PID.TID 0000.0001)               ''
(PID.TID 0000.0001)     ;
(PID.TID 0000.0001) PTRACERS_ioLabel = /* tracer IO Label */
(PID.TID 0000.0001)               '1n'
(PID.TID 0000.0001)     ;
(PID.TID 0000.0001) PTRACERS_advScheme = /* Advection Scheme */
(PID.TID 0000.0001)                      33
(PID.TID 0000.0001)     ;
(PID.TID 0000.0001) PTRACERS_SOM_Advection = /* tracer uses SOM advection scheme */
(PID.TID 0000.0001)                   F
(PID.TID 0000.0001)     ;
(PID.TID 0000.0001) PTRACERS_ImplVertAdv = /* implicit vert. advection flag */
(PID.TID 0000.0001)                   F
(PID.TID 0000.0001)     ;
(PID.TID 0000.0001) PTRACERS_diffKh = /* Laplacian Diffusivity */
(PID.TID 0000.0001)                 0.000000000000000E+00
(PID.TID 0000.0001)     ;
(PID.TID 0000.0001) PTRACERS_diffK4 = /* Biharmonic Diffusivity */
(PID.TID 0000.0001)                 0.000000000000000E+00
(PID.TID 0000.0001)     ;
(PID.TID 0000.0001) PTRACERS_diffKrNr = /* Vertical Diffusivity */
(PID.TID 0000.0001)    15 @  1.000000000000000E-05              /* K =  1: 15 */
(PID.TID 0000.0001)     ;
(PID.TID 0000.0001) PTRACERS_useGMRedi = /* apply GM-Redi */
(PID.TID 0000.0001)                   T
(PID.TID 0000.0001)     ;
(PID.TID 0000.0001) PTRACERS_useDWNSLP = /* apply DOWN-SLOPE Flow */
(PID.TID 0000.0001)                   F
(PID.TID 0000.0001)     ;
(PID.TID 0000.0001) PTRACERS_useKPP = /* apply KPP scheme */
(PID.TID 0000.0001)                   F
(PID.TID 0000.0001)     ;
(PID.TID 0000.0001) PTRACERS_ref = /* Reference vertical profile */
(PID.TID 0000.0001)    15 @  0.000000000000000E+00              /* K =  1: 15 */
(PID.TID 0000.0001)     ;
(PID.TID 0000.0001) PTRACERS_EvPrRn =/* tracer conc. in Evap. & Rain */
(PID.TID 0000.0001)                 1.234567000000000E+05
(PID.TID 0000.0001)     ;
(PID.TID 0000.0001)  -----------------------------------
(PID.TID 0000.0001)  tracer number :  166
(PID.TID 0000.0001) PTRACERS_names = /* Tracer short name */
(PID.TID 0000.0001)               'fe39'
(PID.TID 0000.0001)     ;
(PID.TID 0000.0001) PTRACERS_long_names = /* Tracer long name */
(PID.TID 0000.0001)               ''
(PID.TID 0000.0001)     ;
(PID.TID 0000.0001) PTRACERS_ioLabel = /* tracer IO Label */
(PID.TID 0000.0001)               '1o'
(PID.TID 0000.0001)     ;
(PID.TID 0000.0001) PTRACERS_advScheme = /* Advection Scheme */
(PID.TID 0000.0001)                      33
(PID.TID 0000.0001)     ;
(PID.TID 0000.0001) PTRACERS_SOM_Advection = /* tracer uses SOM advection scheme */
(PID.TID 0000.0001)                   F
(PID.TID 0000.0001)     ;
(PID.TID 0000.0001) PTRACERS_ImplVertAdv = /* implicit vert. advection flag */
(PID.TID 0000.0001)                   F
(PID.TID 0000.0001)     ;
(PID.TID 0000.0001) PTRACERS_diffKh = /* Laplacian Diffusivity */
(PID.TID 0000.0001)                 0.000000000000000E+00
(PID.TID 0000.0001)     ;
(PID.TID 0000.0001) PTRACERS_diffK4 = /* Biharmonic Diffusivity */
(PID.TID 0000.0001)                 0.000000000000000E+00
(PID.TID 0000.0001)     ;
(PID.TID 0000.0001) PTRACERS_diffKrNr = /* Vertical Diffusivity */
(PID.TID 0000.0001)    15 @  1.000000000000000E-05              /* K =  1: 15 */
(PID.TID 0000.0001)     ;
(PID.TID 0000.0001) PTRACERS_useGMRedi = /* apply GM-Redi */
(PID.TID 0000.0001)                   T
(PID.TID 0000.0001)     ;
(PID.TID 0000.0001) PTRACERS_useDWNSLP = /* apply DOWN-SLOPE Flow */
(PID.TID 0000.0001)                   F
(PID.TID 0000.0001)     ;
(PID.TID 0000.0001) PTRACERS_useKPP = /* apply KPP scheme */
(PID.TID 0000.0001)                   F
(PID.TID 0000.0001)     ;
(PID.TID 0000.0001) PTRACERS_ref = /* Reference vertical profile */
(PID.TID 0000.0001)    15 @  0.000000000000000E+00              /* K =  1: 15 */
(PID.TID 0000.0001)     ;
(PID.TID 0000.0001) PTRACERS_EvPrRn =/* tracer conc. in Evap. & Rain */
(PID.TID 0000.0001)                 1.234567000000000E+05
(PID.TID 0000.0001)     ;
(PID.TID 0000.0001)  -----------------------------------
(PID.TID 0000.0001)  tracer number :  167
(PID.TID 0000.0001) PTRACERS_names = /* Tracer short name */
(PID.TID 0000.0001)               'fe40'
(PID.TID 0000.0001)     ;
(PID.TID 0000.0001) PTRACERS_long_names = /* Tracer long name */
(PID.TID 0000.0001)               ''
(PID.TID 0000.0001)     ;
(PID.TID 0000.0001) PTRACERS_ioLabel = /* tracer IO Label */
(PID.TID 0000.0001)               '1p'
(PID.TID 0000.0001)     ;
(PID.TID 0000.0001) PTRACERS_advScheme = /* Advection Scheme */
(PID.TID 0000.0001)                      33
(PID.TID 0000.0001)     ;
(PID.TID 0000.0001) PTRACERS_SOM_Advection = /* tracer uses SOM advection scheme */
(PID.TID 0000.0001)                   F
(PID.TID 0000.0001)     ;
(PID.TID 0000.0001) PTRACERS_ImplVertAdv = /* implicit vert. advection flag */
(PID.TID 0000.0001)                   F
(PID.TID 0000.0001)     ;
(PID.TID 0000.0001) PTRACERS_diffKh = /* Laplacian Diffusivity */
(PID.TID 0000.0001)                 0.000000000000000E+00
(PID.TID 0000.0001)     ;
(PID.TID 0000.0001) PTRACERS_diffK4 = /* Biharmonic Diffusivity */
(PID.TID 0000.0001)                 0.000000000000000E+00
(PID.TID 0000.0001)     ;
(PID.TID 0000.0001) PTRACERS_diffKrNr = /* Vertical Diffusivity */
(PID.TID 0000.0001)    15 @  1.000000000000000E-05              /* K =  1: 15 */
(PID.TID 0000.0001)     ;
(PID.TID 0000.0001) PTRACERS_useGMRedi = /* apply GM-Redi */
(PID.TID 0000.0001)                   T
(PID.TID 0000.0001)     ;
(PID.TID 0000.0001) PTRACERS_useDWNSLP = /* apply DOWN-SLOPE Flow */
(PID.TID 0000.0001)                   F
(PID.TID 0000.0001)     ;
(PID.TID 0000.0001) PTRACERS_useKPP = /* apply KPP scheme */
(PID.TID 0000.0001)                   F
(PID.TID 0000.0001)     ;
(PID.TID 0000.0001) PTRACERS_ref = /* Reference vertical profile */
(PID.TID 0000.0001)    15 @  0.000000000000000E+00              /* K =  1: 15 */
(PID.TID 0000.0001)     ;
(PID.TID 0000.0001) PTRACERS_EvPrRn =/* tracer conc. in Evap. & Rain */
(PID.TID 0000.0001)                 1.234567000000000E+05
(PID.TID 0000.0001)     ;
(PID.TID 0000.0001)  -----------------------------------
(PID.TID 0000.0001)  tracer number :  168
(PID.TID 0000.0001) PTRACERS_names = /* Tracer short name */
(PID.TID 0000.0001)               'fe41'
(PID.TID 0000.0001)     ;
(PID.TID 0000.0001) PTRACERS_long_names = /* Tracer long name */
(PID.TID 0000.0001)               ''
(PID.TID 0000.0001)     ;
(PID.TID 0000.0001) PTRACERS_ioLabel = /* tracer IO Label */
(PID.TID 0000.0001)               '1q'
(PID.TID 0000.0001)     ;
(PID.TID 0000.0001) PTRACERS_advScheme = /* Advection Scheme */
(PID.TID 0000.0001)                      33
(PID.TID 0000.0001)     ;
(PID.TID 0000.0001) PTRACERS_SOM_Advection = /* tracer uses SOM advection scheme */
(PID.TID 0000.0001)                   F
(PID.TID 0000.0001)     ;
(PID.TID 0000.0001) PTRACERS_ImplVertAdv = /* implicit vert. advection flag */
(PID.TID 0000.0001)                   F
(PID.TID 0000.0001)     ;
(PID.TID 0000.0001) PTRACERS_diffKh = /* Laplacian Diffusivity */
(PID.TID 0000.0001)                 0.000000000000000E+00
(PID.TID 0000.0001)     ;
(PID.TID 0000.0001) PTRACERS_diffK4 = /* Biharmonic Diffusivity */
(PID.TID 0000.0001)                 0.000000000000000E+00
(PID.TID 0000.0001)     ;
(PID.TID 0000.0001) PTRACERS_diffKrNr = /* Vertical Diffusivity */
(PID.TID 0000.0001)    15 @  1.000000000000000E-05              /* K =  1: 15 */
(PID.TID 0000.0001)     ;
(PID.TID 0000.0001) PTRACERS_useGMRedi = /* apply GM-Redi */
(PID.TID 0000.0001)                   T
(PID.TID 0000.0001)     ;
(PID.TID 0000.0001) PTRACERS_useDWNSLP = /* apply DOWN-SLOPE Flow */
(PID.TID 0000.0001)                   F
(PID.TID 0000.0001)     ;
(PID.TID 0000.0001) PTRACERS_useKPP = /* apply KPP scheme */
(PID.TID 0000.0001)                   F
(PID.TID 0000.0001)     ;
(PID.TID 0000.0001) PTRACERS_ref = /* Reference vertical profile */
(PID.TID 0000.0001)    15 @  0.000000000000000E+00              /* K =  1: 15 */
(PID.TID 0000.0001)     ;
(PID.TID 0000.0001) PTRACERS_EvPrRn =/* tracer conc. in Evap. & Rain */
(PID.TID 0000.0001)                 1.234567000000000E+05
(PID.TID 0000.0001)     ;
(PID.TID 0000.0001)  -----------------------------------
(PID.TID 0000.0001)  tracer number :  169
(PID.TID 0000.0001) PTRACERS_names = /* Tracer short name */
(PID.TID 0000.0001)               'fe42'
(PID.TID 0000.0001)     ;
(PID.TID 0000.0001) PTRACERS_long_names = /* Tracer long name */
(PID.TID 0000.0001)               ''
(PID.TID 0000.0001)     ;
(PID.TID 0000.0001) PTRACERS_ioLabel = /* tracer IO Label */
(PID.TID 0000.0001)               '1r'
(PID.TID 0000.0001)     ;
(PID.TID 0000.0001) PTRACERS_advScheme = /* Advection Scheme */
(PID.TID 0000.0001)                      33
(PID.TID 0000.0001)     ;
(PID.TID 0000.0001) PTRACERS_SOM_Advection = /* tracer uses SOM advection scheme */
(PID.TID 0000.0001)                   F
(PID.TID 0000.0001)     ;
(PID.TID 0000.0001) PTRACERS_ImplVertAdv = /* implicit vert. advection flag */
(PID.TID 0000.0001)                   F
(PID.TID 0000.0001)     ;
(PID.TID 0000.0001) PTRACERS_diffKh = /* Laplacian Diffusivity */
(PID.TID 0000.0001)                 0.000000000000000E+00
(PID.TID 0000.0001)     ;
(PID.TID 0000.0001) PTRACERS_diffK4 = /* Biharmonic Diffusivity */
(PID.TID 0000.0001)                 0.000000000000000E+00
(PID.TID 0000.0001)     ;
(PID.TID 0000.0001) PTRACERS_diffKrNr = /* Vertical Diffusivity */
(PID.TID 0000.0001)    15 @  1.000000000000000E-05              /* K =  1: 15 */
(PID.TID 0000.0001)     ;
(PID.TID 0000.0001) PTRACERS_useGMRedi = /* apply GM-Redi */
(PID.TID 0000.0001)                   T
(PID.TID 0000.0001)     ;
(PID.TID 0000.0001) PTRACERS_useDWNSLP = /* apply DOWN-SLOPE Flow */
(PID.TID 0000.0001)                   F
(PID.TID 0000.0001)     ;
(PID.TID 0000.0001) PTRACERS_useKPP = /* apply KPP scheme */
(PID.TID 0000.0001)                   F
(PID.TID 0000.0001)     ;
(PID.TID 0000.0001) PTRACERS_ref = /* Reference vertical profile */
(PID.TID 0000.0001)    15 @  0.000000000000000E+00              /* K =  1: 15 */
(PID.TID 0000.0001)     ;
(PID.TID 0000.0001) PTRACERS_EvPrRn =/* tracer conc. in Evap. & Rain */
(PID.TID 0000.0001)                 1.234567000000000E+05
(PID.TID 0000.0001)     ;
(PID.TID 0000.0001)  -----------------------------------
(PID.TID 0000.0001)  tracer number :  170
(PID.TID 0000.0001) PTRACERS_names = /* Tracer short name */
(PID.TID 0000.0001)               'fe43'
(PID.TID 0000.0001)     ;
(PID.TID 0000.0001) PTRACERS_long_names = /* Tracer long name */
(PID.TID 0000.0001)               ''
(PID.TID 0000.0001)     ;
(PID.TID 0000.0001) PTRACERS_ioLabel = /* tracer IO Label */
(PID.TID 0000.0001)               '1s'
(PID.TID 0000.0001)     ;
(PID.TID 0000.0001) PTRACERS_advScheme = /* Advection Scheme */
(PID.TID 0000.0001)                      33
(PID.TID 0000.0001)     ;
(PID.TID 0000.0001) PTRACERS_SOM_Advection = /* tracer uses SOM advection scheme */
(PID.TID 0000.0001)                   F
(PID.TID 0000.0001)     ;
(PID.TID 0000.0001) PTRACERS_ImplVertAdv = /* implicit vert. advection flag */
(PID.TID 0000.0001)                   F
(PID.TID 0000.0001)     ;
(PID.TID 0000.0001) PTRACERS_diffKh = /* Laplacian Diffusivity */
(PID.TID 0000.0001)                 0.000000000000000E+00
(PID.TID 0000.0001)     ;
(PID.TID 0000.0001) PTRACERS_diffK4 = /* Biharmonic Diffusivity */
(PID.TID 0000.0001)                 0.000000000000000E+00
(PID.TID 0000.0001)     ;
(PID.TID 0000.0001) PTRACERS_diffKrNr = /* Vertical Diffusivity */
(PID.TID 0000.0001)    15 @  1.000000000000000E-05              /* K =  1: 15 */
(PID.TID 0000.0001)     ;
(PID.TID 0000.0001) PTRACERS_useGMRedi = /* apply GM-Redi */
(PID.TID 0000.0001)                   T
(PID.TID 0000.0001)     ;
(PID.TID 0000.0001) PTRACERS_useDWNSLP = /* apply DOWN-SLOPE Flow */
(PID.TID 0000.0001)                   F
(PID.TID 0000.0001)     ;
(PID.TID 0000.0001) PTRACERS_useKPP = /* apply KPP scheme */
(PID.TID 0000.0001)                   F
(PID.TID 0000.0001)     ;
(PID.TID 0000.0001) PTRACERS_ref = /* Reference vertical profile */
(PID.TID 0000.0001)    15 @  0.000000000000000E+00              /* K =  1: 15 */
(PID.TID 0000.0001)     ;
(PID.TID 0000.0001) PTRACERS_EvPrRn =/* tracer conc. in Evap. & Rain */
(PID.TID 0000.0001)                 1.234567000000000E+05
(PID.TID 0000.0001)     ;
(PID.TID 0000.0001)  -----------------------------------
(PID.TID 0000.0001)  tracer number :  171
(PID.TID 0000.0001) PTRACERS_names = /* Tracer short name */
(PID.TID 0000.0001)               'fe44'
(PID.TID 0000.0001)     ;
(PID.TID 0000.0001) PTRACERS_long_names = /* Tracer long name */
(PID.TID 0000.0001)               ''
(PID.TID 0000.0001)     ;
(PID.TID 0000.0001) PTRACERS_ioLabel = /* tracer IO Label */
(PID.TID 0000.0001)               '1t'
(PID.TID 0000.0001)     ;
(PID.TID 0000.0001) PTRACERS_advScheme = /* Advection Scheme */
(PID.TID 0000.0001)                      33
(PID.TID 0000.0001)     ;
(PID.TID 0000.0001) PTRACERS_SOM_Advection = /* tracer uses SOM advection scheme */
(PID.TID 0000.0001)                   F
(PID.TID 0000.0001)     ;
(PID.TID 0000.0001) PTRACERS_ImplVertAdv = /* implicit vert. advection flag */
(PID.TID 0000.0001)                   F
(PID.TID 0000.0001)     ;
(PID.TID 0000.0001) PTRACERS_diffKh = /* Laplacian Diffusivity */
(PID.TID 0000.0001)                 0.000000000000000E+00
(PID.TID 0000.0001)     ;
(PID.TID 0000.0001) PTRACERS_diffK4 = /* Biharmonic Diffusivity */
(PID.TID 0000.0001)                 0.000000000000000E+00
(PID.TID 0000.0001)     ;
(PID.TID 0000.0001) PTRACERS_diffKrNr = /* Vertical Diffusivity */
(PID.TID 0000.0001)    15 @  1.000000000000000E-05              /* K =  1: 15 */
(PID.TID 0000.0001)     ;
(PID.TID 0000.0001) PTRACERS_useGMRedi = /* apply GM-Redi */
(PID.TID 0000.0001)                   T
(PID.TID 0000.0001)     ;
(PID.TID 0000.0001) PTRACERS_useDWNSLP = /* apply DOWN-SLOPE Flow */
(PID.TID 0000.0001)                   F
(PID.TID 0000.0001)     ;
(PID.TID 0000.0001) PTRACERS_useKPP = /* apply KPP scheme */
(PID.TID 0000.0001)                   F
(PID.TID 0000.0001)     ;
(PID.TID 0000.0001) PTRACERS_ref = /* Reference vertical profile */
(PID.TID 0000.0001)    15 @  0.000000000000000E+00              /* K =  1: 15 */
(PID.TID 0000.0001)     ;
(PID.TID 0000.0001) PTRACERS_EvPrRn =/* tracer conc. in Evap. & Rain */
(PID.TID 0000.0001)                 1.234567000000000E+05
(PID.TID 0000.0001)     ;
(PID.TID 0000.0001)  -----------------------------------
(PID.TID 0000.0001)  tracer number :  172
(PID.TID 0000.0001) PTRACERS_names = /* Tracer short name */
(PID.TID 0000.0001)               'fe45'
(PID.TID 0000.0001)     ;
(PID.TID 0000.0001) PTRACERS_long_names = /* Tracer long name */
(PID.TID 0000.0001)               ''
(PID.TID 0000.0001)     ;
(PID.TID 0000.0001) PTRACERS_ioLabel = /* tracer IO Label */
(PID.TID 0000.0001)               '1u'
(PID.TID 0000.0001)     ;
(PID.TID 0000.0001) PTRACERS_advScheme = /* Advection Scheme */
(PID.TID 0000.0001)                      33
(PID.TID 0000.0001)     ;
(PID.TID 0000.0001) PTRACERS_SOM_Advection = /* tracer uses SOM advection scheme */
(PID.TID 0000.0001)                   F
(PID.TID 0000.0001)     ;
(PID.TID 0000.0001) PTRACERS_ImplVertAdv = /* implicit vert. advection flag */
(PID.TID 0000.0001)                   F
(PID.TID 0000.0001)     ;
(PID.TID 0000.0001) PTRACERS_diffKh = /* Laplacian Diffusivity */
(PID.TID 0000.0001)                 0.000000000000000E+00
(PID.TID 0000.0001)     ;
(PID.TID 0000.0001) PTRACERS_diffK4 = /* Biharmonic Diffusivity */
(PID.TID 0000.0001)                 0.000000000000000E+00
(PID.TID 0000.0001)     ;
(PID.TID 0000.0001) PTRACERS_diffKrNr = /* Vertical Diffusivity */
(PID.TID 0000.0001)    15 @  1.000000000000000E-05              /* K =  1: 15 */
(PID.TID 0000.0001)     ;
(PID.TID 0000.0001) PTRACERS_useGMRedi = /* apply GM-Redi */
(PID.TID 0000.0001)                   T
(PID.TID 0000.0001)     ;
(PID.TID 0000.0001) PTRACERS_useDWNSLP = /* apply DOWN-SLOPE Flow */
(PID.TID 0000.0001)                   F
(PID.TID 0000.0001)     ;
(PID.TID 0000.0001) PTRACERS_useKPP = /* apply KPP scheme */
(PID.TID 0000.0001)                   F
(PID.TID 0000.0001)     ;
(PID.TID 0000.0001) PTRACERS_ref = /* Reference vertical profile */
(PID.TID 0000.0001)    15 @  0.000000000000000E+00              /* K =  1: 15 */
(PID.TID 0000.0001)     ;
(PID.TID 0000.0001) PTRACERS_EvPrRn =/* tracer conc. in Evap. & Rain */
(PID.TID 0000.0001)                 1.234567000000000E+05
(PID.TID 0000.0001)     ;
(PID.TID 0000.0001)  -----------------------------------
(PID.TID 0000.0001)  tracer number :  173
(PID.TID 0000.0001) PTRACERS_names = /* Tracer short name */
(PID.TID 0000.0001)               'fe46'
(PID.TID 0000.0001)     ;
(PID.TID 0000.0001) PTRACERS_long_names = /* Tracer long name */
(PID.TID 0000.0001)               ''
(PID.TID 0000.0001)     ;
(PID.TID 0000.0001) PTRACERS_ioLabel = /* tracer IO Label */
(PID.TID 0000.0001)               '1v'
(PID.TID 0000.0001)     ;
(PID.TID 0000.0001) PTRACERS_advScheme = /* Advection Scheme */
(PID.TID 0000.0001)                      33
(PID.TID 0000.0001)     ;
(PID.TID 0000.0001) PTRACERS_SOM_Advection = /* tracer uses SOM advection scheme */
(PID.TID 0000.0001)                   F
(PID.TID 0000.0001)     ;
(PID.TID 0000.0001) PTRACERS_ImplVertAdv = /* implicit vert. advection flag */
(PID.TID 0000.0001)                   F
(PID.TID 0000.0001)     ;
(PID.TID 0000.0001) PTRACERS_diffKh = /* Laplacian Diffusivity */
(PID.TID 0000.0001)                 0.000000000000000E+00
(PID.TID 0000.0001)     ;
(PID.TID 0000.0001) PTRACERS_diffK4 = /* Biharmonic Diffusivity */
(PID.TID 0000.0001)                 0.000000000000000E+00
(PID.TID 0000.0001)     ;
(PID.TID 0000.0001) PTRACERS_diffKrNr = /* Vertical Diffusivity */
(PID.TID 0000.0001)    15 @  1.000000000000000E-05              /* K =  1: 15 */
(PID.TID 0000.0001)     ;
(PID.TID 0000.0001) PTRACERS_useGMRedi = /* apply GM-Redi */
(PID.TID 0000.0001)                   T
(PID.TID 0000.0001)     ;
(PID.TID 0000.0001) PTRACERS_useDWNSLP = /* apply DOWN-SLOPE Flow */
(PID.TID 0000.0001)                   F
(PID.TID 0000.0001)     ;
(PID.TID 0000.0001) PTRACERS_useKPP = /* apply KPP scheme */
(PID.TID 0000.0001)                   F
(PID.TID 0000.0001)     ;
(PID.TID 0000.0001) PTRACERS_ref = /* Reference vertical profile */
(PID.TID 0000.0001)    15 @  0.000000000000000E+00              /* K =  1: 15 */
(PID.TID 0000.0001)     ;
(PID.TID 0000.0001) PTRACERS_EvPrRn =/* tracer conc. in Evap. & Rain */
(PID.TID 0000.0001)                 1.234567000000000E+05
(PID.TID 0000.0001)     ;
(PID.TID 0000.0001)  -----------------------------------
(PID.TID 0000.0001)  tracer number :  174
(PID.TID 0000.0001) PTRACERS_names = /* Tracer short name */
(PID.TID 0000.0001)               'fe47'
(PID.TID 0000.0001)     ;
(PID.TID 0000.0001) PTRACERS_long_names = /* Tracer long name */
(PID.TID 0000.0001)               ''
(PID.TID 0000.0001)     ;
(PID.TID 0000.0001) PTRACERS_ioLabel = /* tracer IO Label */
(PID.TID 0000.0001)               '1w'
(PID.TID 0000.0001)     ;
(PID.TID 0000.0001) PTRACERS_advScheme = /* Advection Scheme */
(PID.TID 0000.0001)                      33
(PID.TID 0000.0001)     ;
(PID.TID 0000.0001) PTRACERS_SOM_Advection = /* tracer uses SOM advection scheme */
(PID.TID 0000.0001)                   F
(PID.TID 0000.0001)     ;
(PID.TID 0000.0001) PTRACERS_ImplVertAdv = /* implicit vert. advection flag */
(PID.TID 0000.0001)                   F
(PID.TID 0000.0001)     ;
(PID.TID 0000.0001) PTRACERS_diffKh = /* Laplacian Diffusivity */
(PID.TID 0000.0001)                 0.000000000000000E+00
(PID.TID 0000.0001)     ;
(PID.TID 0000.0001) PTRACERS_diffK4 = /* Biharmonic Diffusivity */
(PID.TID 0000.0001)                 0.000000000000000E+00
(PID.TID 0000.0001)     ;
(PID.TID 0000.0001) PTRACERS_diffKrNr = /* Vertical Diffusivity */
(PID.TID 0000.0001)    15 @  1.000000000000000E-05              /* K =  1: 15 */
(PID.TID 0000.0001)     ;
(PID.TID 0000.0001) PTRACERS_useGMRedi = /* apply GM-Redi */
(PID.TID 0000.0001)                   T
(PID.TID 0000.0001)     ;
(PID.TID 0000.0001) PTRACERS_useDWNSLP = /* apply DOWN-SLOPE Flow */
(PID.TID 0000.0001)                   F
(PID.TID 0000.0001)     ;
(PID.TID 0000.0001) PTRACERS_useKPP = /* apply KPP scheme */
(PID.TID 0000.0001)                   F
(PID.TID 0000.0001)     ;
(PID.TID 0000.0001) PTRACERS_ref = /* Reference vertical profile */
(PID.TID 0000.0001)    15 @  0.000000000000000E+00              /* K =  1: 15 */
(PID.TID 0000.0001)     ;
(PID.TID 0000.0001) PTRACERS_EvPrRn =/* tracer conc. in Evap. & Rain */
(PID.TID 0000.0001)                 1.234567000000000E+05
(PID.TID 0000.0001)     ;
(PID.TID 0000.0001)  -----------------------------------
(PID.TID 0000.0001)  tracer number :  175
(PID.TID 0000.0001) PTRACERS_names = /* Tracer short name */
(PID.TID 0000.0001)               'fe48'
(PID.TID 0000.0001)     ;
(PID.TID 0000.0001) PTRACERS_long_names = /* Tracer long name */
(PID.TID 0000.0001)               ''
(PID.TID 0000.0001)     ;
(PID.TID 0000.0001) PTRACERS_ioLabel = /* tracer IO Label */
(PID.TID 0000.0001)               '1x'
(PID.TID 0000.0001)     ;
(PID.TID 0000.0001) PTRACERS_advScheme = /* Advection Scheme */
(PID.TID 0000.0001)                      33
(PID.TID 0000.0001)     ;
(PID.TID 0000.0001) PTRACERS_SOM_Advection = /* tracer uses SOM advection scheme */
(PID.TID 0000.0001)                   F
(PID.TID 0000.0001)     ;
(PID.TID 0000.0001) PTRACERS_ImplVertAdv = /* implicit vert. advection flag */
(PID.TID 0000.0001)                   F
(PID.TID 0000.0001)     ;
(PID.TID 0000.0001) PTRACERS_diffKh = /* Laplacian Diffusivity */
(PID.TID 0000.0001)                 0.000000000000000E+00
(PID.TID 0000.0001)     ;
(PID.TID 0000.0001) PTRACERS_diffK4 = /* Biharmonic Diffusivity */
(PID.TID 0000.0001)                 0.000000000000000E+00
(PID.TID 0000.0001)     ;
(PID.TID 0000.0001) PTRACERS_diffKrNr = /* Vertical Diffusivity */
(PID.TID 0000.0001)    15 @  1.000000000000000E-05              /* K =  1: 15 */
(PID.TID 0000.0001)     ;
(PID.TID 0000.0001) PTRACERS_useGMRedi = /* apply GM-Redi */
(PID.TID 0000.0001)                   T
(PID.TID 0000.0001)     ;
(PID.TID 0000.0001) PTRACERS_useDWNSLP = /* apply DOWN-SLOPE Flow */
(PID.TID 0000.0001)                   F
(PID.TID 0000.0001)     ;
(PID.TID 0000.0001) PTRACERS_useKPP = /* apply KPP scheme */
(PID.TID 0000.0001)                   F
(PID.TID 0000.0001)     ;
(PID.TID 0000.0001) PTRACERS_ref = /* Reference vertical profile */
(PID.TID 0000.0001)    15 @  0.000000000000000E+00              /* K =  1: 15 */
(PID.TID 0000.0001)     ;
(PID.TID 0000.0001) PTRACERS_EvPrRn =/* tracer conc. in Evap. & Rain */
(PID.TID 0000.0001)                 1.234567000000000E+05
(PID.TID 0000.0001)     ;
(PID.TID 0000.0001)  -----------------------------------
(PID.TID 0000.0001)  tracer number :  176
(PID.TID 0000.0001) PTRACERS_names = /* Tracer short name */
(PID.TID 0000.0001)               'fe49'
(PID.TID 0000.0001)     ;
(PID.TID 0000.0001) PTRACERS_long_names = /* Tracer long name */
(PID.TID 0000.0001)               ''
(PID.TID 0000.0001)     ;
(PID.TID 0000.0001) PTRACERS_ioLabel = /* tracer IO Label */
(PID.TID 0000.0001)               '1y'
(PID.TID 0000.0001)     ;
(PID.TID 0000.0001) PTRACERS_advScheme = /* Advection Scheme */
(PID.TID 0000.0001)                      33
(PID.TID 0000.0001)     ;
(PID.TID 0000.0001) PTRACERS_SOM_Advection = /* tracer uses SOM advection scheme */
(PID.TID 0000.0001)                   F
(PID.TID 0000.0001)     ;
(PID.TID 0000.0001) PTRACERS_ImplVertAdv = /* implicit vert. advection flag */
(PID.TID 0000.0001)                   F
(PID.TID 0000.0001)     ;
(PID.TID 0000.0001) PTRACERS_diffKh = /* Laplacian Diffusivity */
(PID.TID 0000.0001)                 0.000000000000000E+00
(PID.TID 0000.0001)     ;
(PID.TID 0000.0001) PTRACERS_diffK4 = /* Biharmonic Diffusivity */
(PID.TID 0000.0001)                 0.000000000000000E+00
(PID.TID 0000.0001)     ;
(PID.TID 0000.0001) PTRACERS_diffKrNr = /* Vertical Diffusivity */
(PID.TID 0000.0001)    15 @  1.000000000000000E-05              /* K =  1: 15 */
(PID.TID 0000.0001)     ;
(PID.TID 0000.0001) PTRACERS_useGMRedi = /* apply GM-Redi */
(PID.TID 0000.0001)                   T
(PID.TID 0000.0001)     ;
(PID.TID 0000.0001) PTRACERS_useDWNSLP = /* apply DOWN-SLOPE Flow */
(PID.TID 0000.0001)                   F
(PID.TID 0000.0001)     ;
(PID.TID 0000.0001) PTRACERS_useKPP = /* apply KPP scheme */
(PID.TID 0000.0001)                   F
(PID.TID 0000.0001)     ;
(PID.TID 0000.0001) PTRACERS_ref = /* Reference vertical profile */
(PID.TID 0000.0001)    15 @  0.000000000000000E+00              /* K =  1: 15 */
(PID.TID 0000.0001)     ;
(PID.TID 0000.0001) PTRACERS_EvPrRn =/* tracer conc. in Evap. & Rain */
(PID.TID 0000.0001)                 1.234567000000000E+05
(PID.TID 0000.0001)     ;
(PID.TID 0000.0001)  -----------------------------------
(PID.TID 0000.0001)  tracer number :  177
(PID.TID 0000.0001) PTRACERS_names = /* Tracer short name */
(PID.TID 0000.0001)               'fe50'
(PID.TID 0000.0001)     ;
(PID.TID 0000.0001) PTRACERS_long_names = /* Tracer long name */
(PID.TID 0000.0001)               ''
(PID.TID 0000.0001)     ;
(PID.TID 0000.0001) PTRACERS_ioLabel = /* tracer IO Label */
(PID.TID 0000.0001)               '1z'
(PID.TID 0000.0001)     ;
(PID.TID 0000.0001) PTRACERS_advScheme = /* Advection Scheme */
(PID.TID 0000.0001)                      33
(PID.TID 0000.0001)     ;
(PID.TID 0000.0001) PTRACERS_SOM_Advection = /* tracer uses SOM advection scheme */
(PID.TID 0000.0001)                   F
(PID.TID 0000.0001)     ;
(PID.TID 0000.0001) PTRACERS_ImplVertAdv = /* implicit vert. advection flag */
(PID.TID 0000.0001)                   F
(PID.TID 0000.0001)     ;
(PID.TID 0000.0001) PTRACERS_diffKh = /* Laplacian Diffusivity */
(PID.TID 0000.0001)                 0.000000000000000E+00
(PID.TID 0000.0001)     ;
(PID.TID 0000.0001) PTRACERS_diffK4 = /* Biharmonic Diffusivity */
(PID.TID 0000.0001)                 0.000000000000000E+00
(PID.TID 0000.0001)     ;
(PID.TID 0000.0001) PTRACERS_diffKrNr = /* Vertical Diffusivity */
(PID.TID 0000.0001)    15 @  1.000000000000000E-05              /* K =  1: 15 */
(PID.TID 0000.0001)     ;
(PID.TID 0000.0001) PTRACERS_useGMRedi = /* apply GM-Redi */
(PID.TID 0000.0001)                   T
(PID.TID 0000.0001)     ;
(PID.TID 0000.0001) PTRACERS_useDWNSLP = /* apply DOWN-SLOPE Flow */
(PID.TID 0000.0001)                   F
(PID.TID 0000.0001)     ;
(PID.TID 0000.0001) PTRACERS_useKPP = /* apply KPP scheme */
(PID.TID 0000.0001)                   F
(PID.TID 0000.0001)     ;
(PID.TID 0000.0001) PTRACERS_ref = /* Reference vertical profile */
(PID.TID 0000.0001)    15 @  0.000000000000000E+00              /* K =  1: 15 */
(PID.TID 0000.0001)     ;
(PID.TID 0000.0001) PTRACERS_EvPrRn =/* tracer conc. in Evap. & Rain */
(PID.TID 0000.0001)                 1.234567000000000E+05
(PID.TID 0000.0001)     ;
(PID.TID 0000.0001)  -----------------------------------
(PID.TID 0000.0001)  tracer number :  178
(PID.TID 0000.0001) PTRACERS_names = /* Tracer short name */
(PID.TID 0000.0001)               'fe51'
(PID.TID 0000.0001)     ;
(PID.TID 0000.0001) PTRACERS_long_names = /* Tracer long name */
(PID.TID 0000.0001)               ''
(PID.TID 0000.0001)     ;
(PID.TID 0000.0001) PTRACERS_ioLabel = /* tracer IO Label */
(PID.TID 0000.0001)               '1A'
(PID.TID 0000.0001)     ;
(PID.TID 0000.0001) PTRACERS_advScheme = /* Advection Scheme */
(PID.TID 0000.0001)                      33
(PID.TID 0000.0001)     ;
(PID.TID 0000.0001) PTRACERS_SOM_Advection = /* tracer uses SOM advection scheme */
(PID.TID 0000.0001)                   F
(PID.TID 0000.0001)     ;
(PID.TID 0000.0001) PTRACERS_ImplVertAdv = /* implicit vert. advection flag */
(PID.TID 0000.0001)                   F
(PID.TID 0000.0001)     ;
(PID.TID 0000.0001) PTRACERS_diffKh = /* Laplacian Diffusivity */
(PID.TID 0000.0001)                 0.000000000000000E+00
(PID.TID 0000.0001)     ;
(PID.TID 0000.0001) PTRACERS_diffK4 = /* Biharmonic Diffusivity */
(PID.TID 0000.0001)                 0.000000000000000E+00
(PID.TID 0000.0001)     ;
(PID.TID 0000.0001) PTRACERS_diffKrNr = /* Vertical Diffusivity */
(PID.TID 0000.0001)    15 @  1.000000000000000E-05              /* K =  1: 15 */
(PID.TID 0000.0001)     ;
(PID.TID 0000.0001) PTRACERS_useGMRedi = /* apply GM-Redi */
(PID.TID 0000.0001)                   T
(PID.TID 0000.0001)     ;
(PID.TID 0000.0001) PTRACERS_useDWNSLP = /* apply DOWN-SLOPE Flow */
(PID.TID 0000.0001)                   F
(PID.TID 0000.0001)     ;
(PID.TID 0000.0001) PTRACERS_useKPP = /* apply KPP scheme */
(PID.TID 0000.0001)                   F
(PID.TID 0000.0001)     ;
(PID.TID 0000.0001) PTRACERS_ref = /* Reference vertical profile */
(PID.TID 0000.0001)    15 @  0.000000000000000E+00              /* K =  1: 15 */
(PID.TID 0000.0001)     ;
(PID.TID 0000.0001) PTRACERS_EvPrRn =/* tracer conc. in Evap. & Rain */
(PID.TID 0000.0001)                 1.234567000000000E+05
(PID.TID 0000.0001)     ;
(PID.TID 0000.0001)  -----------------------------------
(PID.TID 0000.0001)  tracer number :  179
(PID.TID 0000.0001) PTRACERS_names = /* Tracer short name */
(PID.TID 0000.0001)               'fe52'
(PID.TID 0000.0001)     ;
(PID.TID 0000.0001) PTRACERS_long_names = /* Tracer long name */
(PID.TID 0000.0001)               ''
(PID.TID 0000.0001)     ;
(PID.TID 0000.0001) PTRACERS_ioLabel = /* tracer IO Label */
(PID.TID 0000.0001)               '1B'
(PID.TID 0000.0001)     ;
(PID.TID 0000.0001) PTRACERS_advScheme = /* Advection Scheme */
(PID.TID 0000.0001)                      33
(PID.TID 0000.0001)     ;
(PID.TID 0000.0001) PTRACERS_SOM_Advection = /* tracer uses SOM advection scheme */
(PID.TID 0000.0001)                   F
(PID.TID 0000.0001)     ;
(PID.TID 0000.0001) PTRACERS_ImplVertAdv = /* implicit vert. advection flag */
(PID.TID 0000.0001)                   F
(PID.TID 0000.0001)     ;
(PID.TID 0000.0001) PTRACERS_diffKh = /* Laplacian Diffusivity */
(PID.TID 0000.0001)                 0.000000000000000E+00
(PID.TID 0000.0001)     ;
(PID.TID 0000.0001) PTRACERS_diffK4 = /* Biharmonic Diffusivity */
(PID.TID 0000.0001)                 0.000000000000000E+00
(PID.TID 0000.0001)     ;
(PID.TID 0000.0001) PTRACERS_diffKrNr = /* Vertical Diffusivity */
(PID.TID 0000.0001)    15 @  1.000000000000000E-05              /* K =  1: 15 */
(PID.TID 0000.0001)     ;
(PID.TID 0000.0001) PTRACERS_useGMRedi = /* apply GM-Redi */
(PID.TID 0000.0001)                   T
(PID.TID 0000.0001)     ;
(PID.TID 0000.0001) PTRACERS_useDWNSLP = /* apply DOWN-SLOPE Flow */
(PID.TID 0000.0001)                   F
(PID.TID 0000.0001)     ;
(PID.TID 0000.0001) PTRACERS_useKPP = /* apply KPP scheme */
(PID.TID 0000.0001)                   F
(PID.TID 0000.0001)     ;
(PID.TID 0000.0001) PTRACERS_ref = /* Reference vertical profile */
(PID.TID 0000.0001)    15 @  0.000000000000000E+00              /* K =  1: 15 */
(PID.TID 0000.0001)     ;
(PID.TID 0000.0001) PTRACERS_EvPrRn =/* tracer conc. in Evap. & Rain */
(PID.TID 0000.0001)                 1.234567000000000E+05
(PID.TID 0000.0001)     ;
(PID.TID 0000.0001)  -----------------------------------
(PID.TID 0000.0001)  tracer number :  180
(PID.TID 0000.0001) PTRACERS_names = /* Tracer short name */
(PID.TID 0000.0001)               'fe53'
(PID.TID 0000.0001)     ;
(PID.TID 0000.0001) PTRACERS_long_names = /* Tracer long name */
(PID.TID 0000.0001)               ''
(PID.TID 0000.0001)     ;
(PID.TID 0000.0001) PTRACERS_ioLabel = /* tracer IO Label */
(PID.TID 0000.0001)               '1C'
(PID.TID 0000.0001)     ;
(PID.TID 0000.0001) PTRACERS_advScheme = /* Advection Scheme */
(PID.TID 0000.0001)                      33
(PID.TID 0000.0001)     ;
(PID.TID 0000.0001) PTRACERS_SOM_Advection = /* tracer uses SOM advection scheme */
(PID.TID 0000.0001)                   F
(PID.TID 0000.0001)     ;
(PID.TID 0000.0001) PTRACERS_ImplVertAdv = /* implicit vert. advection flag */
(PID.TID 0000.0001)                   F
(PID.TID 0000.0001)     ;
(PID.TID 0000.0001) PTRACERS_diffKh = /* Laplacian Diffusivity */
(PID.TID 0000.0001)                 0.000000000000000E+00
(PID.TID 0000.0001)     ;
(PID.TID 0000.0001) PTRACERS_diffK4 = /* Biharmonic Diffusivity */
(PID.TID 0000.0001)                 0.000000000000000E+00
(PID.TID 0000.0001)     ;
(PID.TID 0000.0001) PTRACERS_diffKrNr = /* Vertical Diffusivity */
(PID.TID 0000.0001)    15 @  1.000000000000000E-05              /* K =  1: 15 */
(PID.TID 0000.0001)     ;
(PID.TID 0000.0001) PTRACERS_useGMRedi = /* apply GM-Redi */
(PID.TID 0000.0001)                   T
(PID.TID 0000.0001)     ;
(PID.TID 0000.0001) PTRACERS_useDWNSLP = /* apply DOWN-SLOPE Flow */
(PID.TID 0000.0001)                   F
(PID.TID 0000.0001)     ;
(PID.TID 0000.0001) PTRACERS_useKPP = /* apply KPP scheme */
(PID.TID 0000.0001)                   F
(PID.TID 0000.0001)     ;
(PID.TID 0000.0001) PTRACERS_ref = /* Reference vertical profile */
(PID.TID 0000.0001)    15 @  0.000000000000000E+00              /* K =  1: 15 */
(PID.TID 0000.0001)     ;
(PID.TID 0000.0001) PTRACERS_EvPrRn =/* tracer conc. in Evap. & Rain */
(PID.TID 0000.0001)                 1.234567000000000E+05
(PID.TID 0000.0001)     ;
(PID.TID 0000.0001)  -----------------------------------
(PID.TID 0000.0001)  tracer number :  181
(PID.TID 0000.0001) PTRACERS_names = /* Tracer short name */
(PID.TID 0000.0001)               'fe54'
(PID.TID 0000.0001)     ;
(PID.TID 0000.0001) PTRACERS_long_names = /* Tracer long name */
(PID.TID 0000.0001)               ''
(PID.TID 0000.0001)     ;
(PID.TID 0000.0001) PTRACERS_ioLabel = /* tracer IO Label */
(PID.TID 0000.0001)               '1D'
(PID.TID 0000.0001)     ;
(PID.TID 0000.0001) PTRACERS_advScheme = /* Advection Scheme */
(PID.TID 0000.0001)                      33
(PID.TID 0000.0001)     ;
(PID.TID 0000.0001) PTRACERS_SOM_Advection = /* tracer uses SOM advection scheme */
(PID.TID 0000.0001)                   F
(PID.TID 0000.0001)     ;
(PID.TID 0000.0001) PTRACERS_ImplVertAdv = /* implicit vert. advection flag */
(PID.TID 0000.0001)                   F
(PID.TID 0000.0001)     ;
(PID.TID 0000.0001) PTRACERS_diffKh = /* Laplacian Diffusivity */
(PID.TID 0000.0001)                 0.000000000000000E+00
(PID.TID 0000.0001)     ;
(PID.TID 0000.0001) PTRACERS_diffK4 = /* Biharmonic Diffusivity */
(PID.TID 0000.0001)                 0.000000000000000E+00
(PID.TID 0000.0001)     ;
(PID.TID 0000.0001) PTRACERS_diffKrNr = /* Vertical Diffusivity */
(PID.TID 0000.0001)    15 @  1.000000000000000E-05              /* K =  1: 15 */
(PID.TID 0000.0001)     ;
(PID.TID 0000.0001) PTRACERS_useGMRedi = /* apply GM-Redi */
(PID.TID 0000.0001)                   T
(PID.TID 0000.0001)     ;
(PID.TID 0000.0001) PTRACERS_useDWNSLP = /* apply DOWN-SLOPE Flow */
(PID.TID 0000.0001)                   F
(PID.TID 0000.0001)     ;
(PID.TID 0000.0001) PTRACERS_useKPP = /* apply KPP scheme */
(PID.TID 0000.0001)                   F
(PID.TID 0000.0001)     ;
(PID.TID 0000.0001) PTRACERS_ref = /* Reference vertical profile */
(PID.TID 0000.0001)    15 @  0.000000000000000E+00              /* K =  1: 15 */
(PID.TID 0000.0001)     ;
(PID.TID 0000.0001) PTRACERS_EvPrRn =/* tracer conc. in Evap. & Rain */
(PID.TID 0000.0001)                 1.234567000000000E+05
(PID.TID 0000.0001)     ;
(PID.TID 0000.0001)  -----------------------------------
(PID.TID 0000.0001)  tracer number :  182
(PID.TID 0000.0001) PTRACERS_names = /* Tracer short name */
(PID.TID 0000.0001)               'fe55'
(PID.TID 0000.0001)     ;
(PID.TID 0000.0001) PTRACERS_long_names = /* Tracer long name */
(PID.TID 0000.0001)               ''
(PID.TID 0000.0001)     ;
(PID.TID 0000.0001) PTRACERS_ioLabel = /* tracer IO Label */
(PID.TID 0000.0001)               '1E'
(PID.TID 0000.0001)     ;
(PID.TID 0000.0001) PTRACERS_advScheme = /* Advection Scheme */
(PID.TID 0000.0001)                      33
(PID.TID 0000.0001)     ;
(PID.TID 0000.0001) PTRACERS_SOM_Advection = /* tracer uses SOM advection scheme */
(PID.TID 0000.0001)                   F
(PID.TID 0000.0001)     ;
(PID.TID 0000.0001) PTRACERS_ImplVertAdv = /* implicit vert. advection flag */
(PID.TID 0000.0001)                   F
(PID.TID 0000.0001)     ;
(PID.TID 0000.0001) PTRACERS_diffKh = /* Laplacian Diffusivity */
(PID.TID 0000.0001)                 0.000000000000000E+00
(PID.TID 0000.0001)     ;
(PID.TID 0000.0001) PTRACERS_diffK4 = /* Biharmonic Diffusivity */
(PID.TID 0000.0001)                 0.000000000000000E+00
(PID.TID 0000.0001)     ;
(PID.TID 0000.0001) PTRACERS_diffKrNr = /* Vertical Diffusivity */
(PID.TID 0000.0001)    15 @  1.000000000000000E-05              /* K =  1: 15 */
(PID.TID 0000.0001)     ;
(PID.TID 0000.0001) PTRACERS_useGMRedi = /* apply GM-Redi */
(PID.TID 0000.0001)                   T
(PID.TID 0000.0001)     ;
(PID.TID 0000.0001) PTRACERS_useDWNSLP = /* apply DOWN-SLOPE Flow */
(PID.TID 0000.0001)                   F
(PID.TID 0000.0001)     ;
(PID.TID 0000.0001) PTRACERS_useKPP = /* apply KPP scheme */
(PID.TID 0000.0001)                   F
(PID.TID 0000.0001)     ;
(PID.TID 0000.0001) PTRACERS_ref = /* Reference vertical profile */
(PID.TID 0000.0001)    15 @  0.000000000000000E+00              /* K =  1: 15 */
(PID.TID 0000.0001)     ;
(PID.TID 0000.0001) PTRACERS_EvPrRn =/* tracer conc. in Evap. & Rain */
(PID.TID 0000.0001)                 1.234567000000000E+05
(PID.TID 0000.0001)     ;
(PID.TID 0000.0001)  -----------------------------------
(PID.TID 0000.0001)  tracer number :  183
(PID.TID 0000.0001) PTRACERS_names = /* Tracer short name */
(PID.TID 0000.0001)               'Chl01'
(PID.TID 0000.0001)     ;
(PID.TID 0000.0001) PTRACERS_long_names = /* Tracer long name */
(PID.TID 0000.0001)               ''
(PID.TID 0000.0001)     ;
(PID.TID 0000.0001) PTRACERS_ioLabel = /* tracer IO Label */
(PID.TID 0000.0001)               '1F'
(PID.TID 0000.0001)     ;
(PID.TID 0000.0001) PTRACERS_advScheme = /* Advection Scheme */
(PID.TID 0000.0001)                      33
(PID.TID 0000.0001)     ;
(PID.TID 0000.0001) PTRACERS_SOM_Advection = /* tracer uses SOM advection scheme */
(PID.TID 0000.0001)                   F
(PID.TID 0000.0001)     ;
(PID.TID 0000.0001) PTRACERS_ImplVertAdv = /* implicit vert. advection flag */
(PID.TID 0000.0001)                   F
(PID.TID 0000.0001)     ;
(PID.TID 0000.0001) PTRACERS_diffKh = /* Laplacian Diffusivity */
(PID.TID 0000.0001)                 0.000000000000000E+00
(PID.TID 0000.0001)     ;
(PID.TID 0000.0001) PTRACERS_diffK4 = /* Biharmonic Diffusivity */
(PID.TID 0000.0001)                 0.000000000000000E+00
(PID.TID 0000.0001)     ;
(PID.TID 0000.0001) PTRACERS_diffKrNr = /* Vertical Diffusivity */
(PID.TID 0000.0001)    15 @  1.000000000000000E-05              /* K =  1: 15 */
(PID.TID 0000.0001)     ;
(PID.TID 0000.0001) PTRACERS_useGMRedi = /* apply GM-Redi */
(PID.TID 0000.0001)                   T
(PID.TID 0000.0001)     ;
(PID.TID 0000.0001) PTRACERS_useDWNSLP = /* apply DOWN-SLOPE Flow */
(PID.TID 0000.0001)                   F
(PID.TID 0000.0001)     ;
(PID.TID 0000.0001) PTRACERS_useKPP = /* apply KPP scheme */
(PID.TID 0000.0001)                   F
(PID.TID 0000.0001)     ;
(PID.TID 0000.0001) PTRACERS_ref = /* Reference vertical profile */
(PID.TID 0000.0001)    15 @  0.000000000000000E+00              /* K =  1: 15 */
(PID.TID 0000.0001)     ;
(PID.TID 0000.0001) PTRACERS_EvPrRn =/* tracer conc. in Evap. & Rain */
(PID.TID 0000.0001)                 1.234567000000000E+05
(PID.TID 0000.0001)     ;
(PID.TID 0000.0001)  -----------------------------------
(PID.TID 0000.0001)  tracer number :  184
(PID.TID 0000.0001) PTRACERS_names = /* Tracer short name */
(PID.TID 0000.0001)               'Chl02'
(PID.TID 0000.0001)     ;
(PID.TID 0000.0001) PTRACERS_long_names = /* Tracer long name */
(PID.TID 0000.0001)               ''
(PID.TID 0000.0001)     ;
(PID.TID 0000.0001) PTRACERS_ioLabel = /* tracer IO Label */
(PID.TID 0000.0001)               '1G'
(PID.TID 0000.0001)     ;
(PID.TID 0000.0001) PTRACERS_advScheme = /* Advection Scheme */
(PID.TID 0000.0001)                      33
(PID.TID 0000.0001)     ;
(PID.TID 0000.0001) PTRACERS_SOM_Advection = /* tracer uses SOM advection scheme */
(PID.TID 0000.0001)                   F
(PID.TID 0000.0001)     ;
(PID.TID 0000.0001) PTRACERS_ImplVertAdv = /* implicit vert. advection flag */
(PID.TID 0000.0001)                   F
(PID.TID 0000.0001)     ;
(PID.TID 0000.0001) PTRACERS_diffKh = /* Laplacian Diffusivity */
(PID.TID 0000.0001)                 0.000000000000000E+00
(PID.TID 0000.0001)     ;
(PID.TID 0000.0001) PTRACERS_diffK4 = /* Biharmonic Diffusivity */
(PID.TID 0000.0001)                 0.000000000000000E+00
(PID.TID 0000.0001)     ;
(PID.TID 0000.0001) PTRACERS_diffKrNr = /* Vertical Diffusivity */
(PID.TID 0000.0001)    15 @  1.000000000000000E-05              /* K =  1: 15 */
(PID.TID 0000.0001)     ;
(PID.TID 0000.0001) PTRACERS_useGMRedi = /* apply GM-Redi */
(PID.TID 0000.0001)                   T
(PID.TID 0000.0001)     ;
(PID.TID 0000.0001) PTRACERS_useDWNSLP = /* apply DOWN-SLOPE Flow */
(PID.TID 0000.0001)                   F
(PID.TID 0000.0001)     ;
(PID.TID 0000.0001) PTRACERS_useKPP = /* apply KPP scheme */
(PID.TID 0000.0001)                   F
(PID.TID 0000.0001)     ;
(PID.TID 0000.0001) PTRACERS_ref = /* Reference vertical profile */
(PID.TID 0000.0001)    15 @  0.000000000000000E+00              /* K =  1: 15 */
(PID.TID 0000.0001)     ;
(PID.TID 0000.0001) PTRACERS_EvPrRn =/* tracer conc. in Evap. & Rain */
(PID.TID 0000.0001)                 1.234567000000000E+05
(PID.TID 0000.0001)     ;
(PID.TID 0000.0001)  -----------------------------------
(PID.TID 0000.0001)  tracer number :  185
(PID.TID 0000.0001) PTRACERS_names = /* Tracer short name */
(PID.TID 0000.0001)               'Chl03'
(PID.TID 0000.0001)     ;
(PID.TID 0000.0001) PTRACERS_long_names = /* Tracer long name */
(PID.TID 0000.0001)               ''
(PID.TID 0000.0001)     ;
(PID.TID 0000.0001) PTRACERS_ioLabel = /* tracer IO Label */
(PID.TID 0000.0001)               '1H'
(PID.TID 0000.0001)     ;
(PID.TID 0000.0001) PTRACERS_advScheme = /* Advection Scheme */
(PID.TID 0000.0001)                      33
(PID.TID 0000.0001)     ;
(PID.TID 0000.0001) PTRACERS_SOM_Advection = /* tracer uses SOM advection scheme */
(PID.TID 0000.0001)                   F
(PID.TID 0000.0001)     ;
(PID.TID 0000.0001) PTRACERS_ImplVertAdv = /* implicit vert. advection flag */
(PID.TID 0000.0001)                   F
(PID.TID 0000.0001)     ;
(PID.TID 0000.0001) PTRACERS_diffKh = /* Laplacian Diffusivity */
(PID.TID 0000.0001)                 0.000000000000000E+00
(PID.TID 0000.0001)     ;
(PID.TID 0000.0001) PTRACERS_diffK4 = /* Biharmonic Diffusivity */
(PID.TID 0000.0001)                 0.000000000000000E+00
(PID.TID 0000.0001)     ;
(PID.TID 0000.0001) PTRACERS_diffKrNr = /* Vertical Diffusivity */
(PID.TID 0000.0001)    15 @  1.000000000000000E-05              /* K =  1: 15 */
(PID.TID 0000.0001)     ;
(PID.TID 0000.0001) PTRACERS_useGMRedi = /* apply GM-Redi */
(PID.TID 0000.0001)                   T
(PID.TID 0000.0001)     ;
(PID.TID 0000.0001) PTRACERS_useDWNSLP = /* apply DOWN-SLOPE Flow */
(PID.TID 0000.0001)                   F
(PID.TID 0000.0001)     ;
(PID.TID 0000.0001) PTRACERS_useKPP = /* apply KPP scheme */
(PID.TID 0000.0001)                   F
(PID.TID 0000.0001)     ;
(PID.TID 0000.0001) PTRACERS_ref = /* Reference vertical profile */
(PID.TID 0000.0001)    15 @  0.000000000000000E+00              /* K =  1: 15 */
(PID.TID 0000.0001)     ;
(PID.TID 0000.0001) PTRACERS_EvPrRn =/* tracer conc. in Evap. & Rain */
(PID.TID 0000.0001)                 1.234567000000000E+05
(PID.TID 0000.0001)     ;
(PID.TID 0000.0001)  -----------------------------------
(PID.TID 0000.0001)  tracer number :  186
(PID.TID 0000.0001) PTRACERS_names = /* Tracer short name */
(PID.TID 0000.0001)               'Chl04'
(PID.TID 0000.0001)     ;
(PID.TID 0000.0001) PTRACERS_long_names = /* Tracer long name */
(PID.TID 0000.0001)               ''
(PID.TID 0000.0001)     ;
(PID.TID 0000.0001) PTRACERS_ioLabel = /* tracer IO Label */
(PID.TID 0000.0001)               '1I'
(PID.TID 0000.0001)     ;
(PID.TID 0000.0001) PTRACERS_advScheme = /* Advection Scheme */
(PID.TID 0000.0001)                      33
(PID.TID 0000.0001)     ;
(PID.TID 0000.0001) PTRACERS_SOM_Advection = /* tracer uses SOM advection scheme */
(PID.TID 0000.0001)                   F
(PID.TID 0000.0001)     ;
(PID.TID 0000.0001) PTRACERS_ImplVertAdv = /* implicit vert. advection flag */
(PID.TID 0000.0001)                   F
(PID.TID 0000.0001)     ;
(PID.TID 0000.0001) PTRACERS_diffKh = /* Laplacian Diffusivity */
(PID.TID 0000.0001)                 0.000000000000000E+00
(PID.TID 0000.0001)     ;
(PID.TID 0000.0001) PTRACERS_diffK4 = /* Biharmonic Diffusivity */
(PID.TID 0000.0001)                 0.000000000000000E+00
(PID.TID 0000.0001)     ;
(PID.TID 0000.0001) PTRACERS_diffKrNr = /* Vertical Diffusivity */
(PID.TID 0000.0001)    15 @  1.000000000000000E-05              /* K =  1: 15 */
(PID.TID 0000.0001)     ;
(PID.TID 0000.0001) PTRACERS_useGMRedi = /* apply GM-Redi */
(PID.TID 0000.0001)                   T
(PID.TID 0000.0001)     ;
(PID.TID 0000.0001) PTRACERS_useDWNSLP = /* apply DOWN-SLOPE Flow */
(PID.TID 0000.0001)                   F
(PID.TID 0000.0001)     ;
(PID.TID 0000.0001) PTRACERS_useKPP = /* apply KPP scheme */
(PID.TID 0000.0001)                   F
(PID.TID 0000.0001)     ;
(PID.TID 0000.0001) PTRACERS_ref = /* Reference vertical profile */
(PID.TID 0000.0001)    15 @  0.000000000000000E+00              /* K =  1: 15 */
(PID.TID 0000.0001)     ;
(PID.TID 0000.0001) PTRACERS_EvPrRn =/* tracer conc. in Evap. & Rain */
(PID.TID 0000.0001)                 1.234567000000000E+05
(PID.TID 0000.0001)     ;
(PID.TID 0000.0001)  -----------------------------------
(PID.TID 0000.0001)  tracer number :  187
(PID.TID 0000.0001) PTRACERS_names = /* Tracer short name */
(PID.TID 0000.0001)               'Chl05'
(PID.TID 0000.0001)     ;
(PID.TID 0000.0001) PTRACERS_long_names = /* Tracer long name */
(PID.TID 0000.0001)               ''
(PID.TID 0000.0001)     ;
(PID.TID 0000.0001) PTRACERS_ioLabel = /* tracer IO Label */
(PID.TID 0000.0001)               '1J'
(PID.TID 0000.0001)     ;
(PID.TID 0000.0001) PTRACERS_advScheme = /* Advection Scheme */
(PID.TID 0000.0001)                      33
(PID.TID 0000.0001)     ;
(PID.TID 0000.0001) PTRACERS_SOM_Advection = /* tracer uses SOM advection scheme */
(PID.TID 0000.0001)                   F
(PID.TID 0000.0001)     ;
(PID.TID 0000.0001) PTRACERS_ImplVertAdv = /* implicit vert. advection flag */
(PID.TID 0000.0001)                   F
(PID.TID 0000.0001)     ;
(PID.TID 0000.0001) PTRACERS_diffKh = /* Laplacian Diffusivity */
(PID.TID 0000.0001)                 0.000000000000000E+00
(PID.TID 0000.0001)     ;
(PID.TID 0000.0001) PTRACERS_diffK4 = /* Biharmonic Diffusivity */
(PID.TID 0000.0001)                 0.000000000000000E+00
(PID.TID 0000.0001)     ;
(PID.TID 0000.0001) PTRACERS_diffKrNr = /* Vertical Diffusivity */
(PID.TID 0000.0001)    15 @  1.000000000000000E-05              /* K =  1: 15 */
(PID.TID 0000.0001)     ;
(PID.TID 0000.0001) PTRACERS_useGMRedi = /* apply GM-Redi */
(PID.TID 0000.0001)                   T
(PID.TID 0000.0001)     ;
(PID.TID 0000.0001) PTRACERS_useDWNSLP = /* apply DOWN-SLOPE Flow */
(PID.TID 0000.0001)                   F
(PID.TID 0000.0001)     ;
(PID.TID 0000.0001) PTRACERS_useKPP = /* apply KPP scheme */
(PID.TID 0000.0001)                   F
(PID.TID 0000.0001)     ;
(PID.TID 0000.0001) PTRACERS_ref = /* Reference vertical profile */
(PID.TID 0000.0001)    15 @  0.000000000000000E+00              /* K =  1: 15 */
(PID.TID 0000.0001)     ;
(PID.TID 0000.0001) PTRACERS_EvPrRn =/* tracer conc. in Evap. & Rain */
(PID.TID 0000.0001)                 1.234567000000000E+05
(PID.TID 0000.0001)     ;
(PID.TID 0000.0001)  -----------------------------------
(PID.TID 0000.0001)  tracer number :  188
(PID.TID 0000.0001) PTRACERS_names = /* Tracer short name */
(PID.TID 0000.0001)               'Chl06'
(PID.TID 0000.0001)     ;
(PID.TID 0000.0001) PTRACERS_long_names = /* Tracer long name */
(PID.TID 0000.0001)               ''
(PID.TID 0000.0001)     ;
(PID.TID 0000.0001) PTRACERS_ioLabel = /* tracer IO Label */
(PID.TID 0000.0001)               '1K'
(PID.TID 0000.0001)     ;
(PID.TID 0000.0001) PTRACERS_advScheme = /* Advection Scheme */
(PID.TID 0000.0001)                      33
(PID.TID 0000.0001)     ;
(PID.TID 0000.0001) PTRACERS_SOM_Advection = /* tracer uses SOM advection scheme */
(PID.TID 0000.0001)                   F
(PID.TID 0000.0001)     ;
(PID.TID 0000.0001) PTRACERS_ImplVertAdv = /* implicit vert. advection flag */
(PID.TID 0000.0001)                   F
(PID.TID 0000.0001)     ;
(PID.TID 0000.0001) PTRACERS_diffKh = /* Laplacian Diffusivity */
(PID.TID 0000.0001)                 0.000000000000000E+00
(PID.TID 0000.0001)     ;
(PID.TID 0000.0001) PTRACERS_diffK4 = /* Biharmonic Diffusivity */
(PID.TID 0000.0001)                 0.000000000000000E+00
(PID.TID 0000.0001)     ;
(PID.TID 0000.0001) PTRACERS_diffKrNr = /* Vertical Diffusivity */
(PID.TID 0000.0001)    15 @  1.000000000000000E-05              /* K =  1: 15 */
(PID.TID 0000.0001)     ;
(PID.TID 0000.0001) PTRACERS_useGMRedi = /* apply GM-Redi */
(PID.TID 0000.0001)                   T
(PID.TID 0000.0001)     ;
(PID.TID 0000.0001) PTRACERS_useDWNSLP = /* apply DOWN-SLOPE Flow */
(PID.TID 0000.0001)                   F
(PID.TID 0000.0001)     ;
(PID.TID 0000.0001) PTRACERS_useKPP = /* apply KPP scheme */
(PID.TID 0000.0001)                   F
(PID.TID 0000.0001)     ;
(PID.TID 0000.0001) PTRACERS_ref = /* Reference vertical profile */
(PID.TID 0000.0001)    15 @  0.000000000000000E+00              /* K =  1: 15 */
(PID.TID 0000.0001)     ;
(PID.TID 0000.0001) PTRACERS_EvPrRn =/* tracer conc. in Evap. & Rain */
(PID.TID 0000.0001)                 1.234567000000000E+05
(PID.TID 0000.0001)     ;
(PID.TID 0000.0001)  -----------------------------------
(PID.TID 0000.0001)  tracer number :  189
(PID.TID 0000.0001) PTRACERS_names = /* Tracer short name */
(PID.TID 0000.0001)               'Chl07'
(PID.TID 0000.0001)     ;
(PID.TID 0000.0001) PTRACERS_long_names = /* Tracer long name */
(PID.TID 0000.0001)               ''
(PID.TID 0000.0001)     ;
(PID.TID 0000.0001) PTRACERS_ioLabel = /* tracer IO Label */
(PID.TID 0000.0001)               '1L'
(PID.TID 0000.0001)     ;
(PID.TID 0000.0001) PTRACERS_advScheme = /* Advection Scheme */
(PID.TID 0000.0001)                      33
(PID.TID 0000.0001)     ;
(PID.TID 0000.0001) PTRACERS_SOM_Advection = /* tracer uses SOM advection scheme */
(PID.TID 0000.0001)                   F
(PID.TID 0000.0001)     ;
(PID.TID 0000.0001) PTRACERS_ImplVertAdv = /* implicit vert. advection flag */
(PID.TID 0000.0001)                   F
(PID.TID 0000.0001)     ;
(PID.TID 0000.0001) PTRACERS_diffKh = /* Laplacian Diffusivity */
(PID.TID 0000.0001)                 0.000000000000000E+00
(PID.TID 0000.0001)     ;
(PID.TID 0000.0001) PTRACERS_diffK4 = /* Biharmonic Diffusivity */
(PID.TID 0000.0001)                 0.000000000000000E+00
(PID.TID 0000.0001)     ;
(PID.TID 0000.0001) PTRACERS_diffKrNr = /* Vertical Diffusivity */
(PID.TID 0000.0001)    15 @  1.000000000000000E-05              /* K =  1: 15 */
(PID.TID 0000.0001)     ;
(PID.TID 0000.0001) PTRACERS_useGMRedi = /* apply GM-Redi */
(PID.TID 0000.0001)                   T
(PID.TID 0000.0001)     ;
(PID.TID 0000.0001) PTRACERS_useDWNSLP = /* apply DOWN-SLOPE Flow */
(PID.TID 0000.0001)                   F
(PID.TID 0000.0001)     ;
(PID.TID 0000.0001) PTRACERS_useKPP = /* apply KPP scheme */
(PID.TID 0000.0001)                   F
(PID.TID 0000.0001)     ;
(PID.TID 0000.0001) PTRACERS_ref = /* Reference vertical profile */
(PID.TID 0000.0001)    15 @  0.000000000000000E+00              /* K =  1: 15 */
(PID.TID 0000.0001)     ;
(PID.TID 0000.0001) PTRACERS_EvPrRn =/* tracer conc. in Evap. & Rain */
(PID.TID 0000.0001)                 1.234567000000000E+05
(PID.TID 0000.0001)     ;
(PID.TID 0000.0001)  -----------------------------------
(PID.TID 0000.0001)  tracer number :  190
(PID.TID 0000.0001) PTRACERS_names = /* Tracer short name */
(PID.TID 0000.0001)               'Chl08'
(PID.TID 0000.0001)     ;
(PID.TID 0000.0001) PTRACERS_long_names = /* Tracer long name */
(PID.TID 0000.0001)               ''
(PID.TID 0000.0001)     ;
(PID.TID 0000.0001) PTRACERS_ioLabel = /* tracer IO Label */
(PID.TID 0000.0001)               '1M'
(PID.TID 0000.0001)     ;
(PID.TID 0000.0001) PTRACERS_advScheme = /* Advection Scheme */
(PID.TID 0000.0001)                      33
(PID.TID 0000.0001)     ;
(PID.TID 0000.0001) PTRACERS_SOM_Advection = /* tracer uses SOM advection scheme */
(PID.TID 0000.0001)                   F
(PID.TID 0000.0001)     ;
(PID.TID 0000.0001) PTRACERS_ImplVertAdv = /* implicit vert. advection flag */
(PID.TID 0000.0001)                   F
(PID.TID 0000.0001)     ;
(PID.TID 0000.0001) PTRACERS_diffKh = /* Laplacian Diffusivity */
(PID.TID 0000.0001)                 0.000000000000000E+00
(PID.TID 0000.0001)     ;
(PID.TID 0000.0001) PTRACERS_diffK4 = /* Biharmonic Diffusivity */
(PID.TID 0000.0001)                 0.000000000000000E+00
(PID.TID 0000.0001)     ;
(PID.TID 0000.0001) PTRACERS_diffKrNr = /* Vertical Diffusivity */
(PID.TID 0000.0001)    15 @  1.000000000000000E-05              /* K =  1: 15 */
(PID.TID 0000.0001)     ;
(PID.TID 0000.0001) PTRACERS_useGMRedi = /* apply GM-Redi */
(PID.TID 0000.0001)                   T
(PID.TID 0000.0001)     ;
(PID.TID 0000.0001) PTRACERS_useDWNSLP = /* apply DOWN-SLOPE Flow */
(PID.TID 0000.0001)                   F
(PID.TID 0000.0001)     ;
(PID.TID 0000.0001) PTRACERS_useKPP = /* apply KPP scheme */
(PID.TID 0000.0001)                   F
(PID.TID 0000.0001)     ;
(PID.TID 0000.0001) PTRACERS_ref = /* Reference vertical profile */
(PID.TID 0000.0001)    15 @  0.000000000000000E+00              /* K =  1: 15 */
(PID.TID 0000.0001)     ;
(PID.TID 0000.0001) PTRACERS_EvPrRn =/* tracer conc. in Evap. & Rain */
(PID.TID 0000.0001)                 1.234567000000000E+05
(PID.TID 0000.0001)     ;
(PID.TID 0000.0001)  -----------------------------------
(PID.TID 0000.0001)  tracer number :  191
(PID.TID 0000.0001) PTRACERS_names = /* Tracer short name */
(PID.TID 0000.0001)               'Chl09'
(PID.TID 0000.0001)     ;
(PID.TID 0000.0001) PTRACERS_long_names = /* Tracer long name */
(PID.TID 0000.0001)               ''
(PID.TID 0000.0001)     ;
(PID.TID 0000.0001) PTRACERS_ioLabel = /* tracer IO Label */
(PID.TID 0000.0001)               '1N'
(PID.TID 0000.0001)     ;
(PID.TID 0000.0001) PTRACERS_advScheme = /* Advection Scheme */
(PID.TID 0000.0001)                      33
(PID.TID 0000.0001)     ;
(PID.TID 0000.0001) PTRACERS_SOM_Advection = /* tracer uses SOM advection scheme */
(PID.TID 0000.0001)                   F
(PID.TID 0000.0001)     ;
(PID.TID 0000.0001) PTRACERS_ImplVertAdv = /* implicit vert. advection flag */
(PID.TID 0000.0001)                   F
(PID.TID 0000.0001)     ;
(PID.TID 0000.0001) PTRACERS_diffKh = /* Laplacian Diffusivity */
(PID.TID 0000.0001)                 0.000000000000000E+00
(PID.TID 0000.0001)     ;
(PID.TID 0000.0001) PTRACERS_diffK4 = /* Biharmonic Diffusivity */
(PID.TID 0000.0001)                 0.000000000000000E+00
(PID.TID 0000.0001)     ;
(PID.TID 0000.0001) PTRACERS_diffKrNr = /* Vertical Diffusivity */
(PID.TID 0000.0001)    15 @  1.000000000000000E-05              /* K =  1: 15 */
(PID.TID 0000.0001)     ;
(PID.TID 0000.0001) PTRACERS_useGMRedi = /* apply GM-Redi */
(PID.TID 0000.0001)                   T
(PID.TID 0000.0001)     ;
(PID.TID 0000.0001) PTRACERS_useDWNSLP = /* apply DOWN-SLOPE Flow */
(PID.TID 0000.0001)                   F
(PID.TID 0000.0001)     ;
(PID.TID 0000.0001) PTRACERS_useKPP = /* apply KPP scheme */
(PID.TID 0000.0001)                   F
(PID.TID 0000.0001)     ;
(PID.TID 0000.0001) PTRACERS_ref = /* Reference vertical profile */
(PID.TID 0000.0001)    15 @  0.000000000000000E+00              /* K =  1: 15 */
(PID.TID 0000.0001)     ;
(PID.TID 0000.0001) PTRACERS_EvPrRn =/* tracer conc. in Evap. & Rain */
(PID.TID 0000.0001)                 1.234567000000000E+05
(PID.TID 0000.0001)     ;
(PID.TID 0000.0001)  -----------------------------------
(PID.TID 0000.0001)  tracer number :  192
(PID.TID 0000.0001) PTRACERS_names = /* Tracer short name */
(PID.TID 0000.0001)               'Chl10'
(PID.TID 0000.0001)     ;
(PID.TID 0000.0001) PTRACERS_long_names = /* Tracer long name */
(PID.TID 0000.0001)               ''
(PID.TID 0000.0001)     ;
(PID.TID 0000.0001) PTRACERS_ioLabel = /* tracer IO Label */
(PID.TID 0000.0001)               '1O'
(PID.TID 0000.0001)     ;
(PID.TID 0000.0001) PTRACERS_advScheme = /* Advection Scheme */
(PID.TID 0000.0001)                      33
(PID.TID 0000.0001)     ;
(PID.TID 0000.0001) PTRACERS_SOM_Advection = /* tracer uses SOM advection scheme */
(PID.TID 0000.0001)                   F
(PID.TID 0000.0001)     ;
(PID.TID 0000.0001) PTRACERS_ImplVertAdv = /* implicit vert. advection flag */
(PID.TID 0000.0001)                   F
(PID.TID 0000.0001)     ;
(PID.TID 0000.0001) PTRACERS_diffKh = /* Laplacian Diffusivity */
(PID.TID 0000.0001)                 0.000000000000000E+00
(PID.TID 0000.0001)     ;
(PID.TID 0000.0001) PTRACERS_diffK4 = /* Biharmonic Diffusivity */
(PID.TID 0000.0001)                 0.000000000000000E+00
(PID.TID 0000.0001)     ;
(PID.TID 0000.0001) PTRACERS_diffKrNr = /* Vertical Diffusivity */
(PID.TID 0000.0001)    15 @  1.000000000000000E-05              /* K =  1: 15 */
(PID.TID 0000.0001)     ;
(PID.TID 0000.0001) PTRACERS_useGMRedi = /* apply GM-Redi */
(PID.TID 0000.0001)                   T
(PID.TID 0000.0001)     ;
(PID.TID 0000.0001) PTRACERS_useDWNSLP = /* apply DOWN-SLOPE Flow */
(PID.TID 0000.0001)                   F
(PID.TID 0000.0001)     ;
(PID.TID 0000.0001) PTRACERS_useKPP = /* apply KPP scheme */
(PID.TID 0000.0001)                   F
(PID.TID 0000.0001)     ;
(PID.TID 0000.0001) PTRACERS_ref = /* Reference vertical profile */
(PID.TID 0000.0001)    15 @  0.000000000000000E+00              /* K =  1: 15 */
(PID.TID 0000.0001)     ;
(PID.TID 0000.0001) PTRACERS_EvPrRn =/* tracer conc. in Evap. & Rain */
(PID.TID 0000.0001)                 1.234567000000000E+05
(PID.TID 0000.0001)     ;
(PID.TID 0000.0001)  -----------------------------------
(PID.TID 0000.0001)  tracer number :  193
(PID.TID 0000.0001) PTRACERS_names = /* Tracer short name */
(PID.TID 0000.0001)               'Chl11'
(PID.TID 0000.0001)     ;
(PID.TID 0000.0001) PTRACERS_long_names = /* Tracer long name */
(PID.TID 0000.0001)               ''
(PID.TID 0000.0001)     ;
(PID.TID 0000.0001) PTRACERS_ioLabel = /* tracer IO Label */
(PID.TID 0000.0001)               '1P'
(PID.TID 0000.0001)     ;
(PID.TID 0000.0001) PTRACERS_advScheme = /* Advection Scheme */
(PID.TID 0000.0001)                      33
(PID.TID 0000.0001)     ;
(PID.TID 0000.0001) PTRACERS_SOM_Advection = /* tracer uses SOM advection scheme */
(PID.TID 0000.0001)                   F
(PID.TID 0000.0001)     ;
(PID.TID 0000.0001) PTRACERS_ImplVertAdv = /* implicit vert. advection flag */
(PID.TID 0000.0001)                   F
(PID.TID 0000.0001)     ;
(PID.TID 0000.0001) PTRACERS_diffKh = /* Laplacian Diffusivity */
(PID.TID 0000.0001)                 0.000000000000000E+00
(PID.TID 0000.0001)     ;
(PID.TID 0000.0001) PTRACERS_diffK4 = /* Biharmonic Diffusivity */
(PID.TID 0000.0001)                 0.000000000000000E+00
(PID.TID 0000.0001)     ;
(PID.TID 0000.0001) PTRACERS_diffKrNr = /* Vertical Diffusivity */
(PID.TID 0000.0001)    15 @  1.000000000000000E-05              /* K =  1: 15 */
(PID.TID 0000.0001)     ;
(PID.TID 0000.0001) PTRACERS_useGMRedi = /* apply GM-Redi */
(PID.TID 0000.0001)                   T
(PID.TID 0000.0001)     ;
(PID.TID 0000.0001) PTRACERS_useDWNSLP = /* apply DOWN-SLOPE Flow */
(PID.TID 0000.0001)                   F
(PID.TID 0000.0001)     ;
(PID.TID 0000.0001) PTRACERS_useKPP = /* apply KPP scheme */
(PID.TID 0000.0001)                   F
(PID.TID 0000.0001)     ;
(PID.TID 0000.0001) PTRACERS_ref = /* Reference vertical profile */
(PID.TID 0000.0001)    15 @  0.000000000000000E+00              /* K =  1: 15 */
(PID.TID 0000.0001)     ;
(PID.TID 0000.0001) PTRACERS_EvPrRn =/* tracer conc. in Evap. & Rain */
(PID.TID 0000.0001)                 1.234567000000000E+05
(PID.TID 0000.0001)     ;
(PID.TID 0000.0001)  -----------------------------------
(PID.TID 0000.0001)  tracer number :  194
(PID.TID 0000.0001) PTRACERS_names = /* Tracer short name */
(PID.TID 0000.0001)               'Chl12'
(PID.TID 0000.0001)     ;
(PID.TID 0000.0001) PTRACERS_long_names = /* Tracer long name */
(PID.TID 0000.0001)               ''
(PID.TID 0000.0001)     ;
(PID.TID 0000.0001) PTRACERS_ioLabel = /* tracer IO Label */
(PID.TID 0000.0001)               '1Q'
(PID.TID 0000.0001)     ;
(PID.TID 0000.0001) PTRACERS_advScheme = /* Advection Scheme */
(PID.TID 0000.0001)                      33
(PID.TID 0000.0001)     ;
(PID.TID 0000.0001) PTRACERS_SOM_Advection = /* tracer uses SOM advection scheme */
(PID.TID 0000.0001)                   F
(PID.TID 0000.0001)     ;
(PID.TID 0000.0001) PTRACERS_ImplVertAdv = /* implicit vert. advection flag */
(PID.TID 0000.0001)                   F
(PID.TID 0000.0001)     ;
(PID.TID 0000.0001) PTRACERS_diffKh = /* Laplacian Diffusivity */
(PID.TID 0000.0001)                 0.000000000000000E+00
(PID.TID 0000.0001)     ;
(PID.TID 0000.0001) PTRACERS_diffK4 = /* Biharmonic Diffusivity */
(PID.TID 0000.0001)                 0.000000000000000E+00
(PID.TID 0000.0001)     ;
(PID.TID 0000.0001) PTRACERS_diffKrNr = /* Vertical Diffusivity */
(PID.TID 0000.0001)    15 @  1.000000000000000E-05              /* K =  1: 15 */
(PID.TID 0000.0001)     ;
(PID.TID 0000.0001) PTRACERS_useGMRedi = /* apply GM-Redi */
(PID.TID 0000.0001)                   T
(PID.TID 0000.0001)     ;
(PID.TID 0000.0001) PTRACERS_useDWNSLP = /* apply DOWN-SLOPE Flow */
(PID.TID 0000.0001)                   F
(PID.TID 0000.0001)     ;
(PID.TID 0000.0001) PTRACERS_useKPP = /* apply KPP scheme */
(PID.TID 0000.0001)                   F
(PID.TID 0000.0001)     ;
(PID.TID 0000.0001) PTRACERS_ref = /* Reference vertical profile */
(PID.TID 0000.0001)    15 @  0.000000000000000E+00              /* K =  1: 15 */
(PID.TID 0000.0001)     ;
(PID.TID 0000.0001) PTRACERS_EvPrRn =/* tracer conc. in Evap. & Rain */
(PID.TID 0000.0001)                 1.234567000000000E+05
(PID.TID 0000.0001)     ;
(PID.TID 0000.0001)  -----------------------------------
(PID.TID 0000.0001)  tracer number :  195
(PID.TID 0000.0001) PTRACERS_names = /* Tracer short name */
(PID.TID 0000.0001)               'Chl13'
(PID.TID 0000.0001)     ;
(PID.TID 0000.0001) PTRACERS_long_names = /* Tracer long name */
(PID.TID 0000.0001)               ''
(PID.TID 0000.0001)     ;
(PID.TID 0000.0001) PTRACERS_ioLabel = /* tracer IO Label */
(PID.TID 0000.0001)               '1R'
(PID.TID 0000.0001)     ;
(PID.TID 0000.0001) PTRACERS_advScheme = /* Advection Scheme */
(PID.TID 0000.0001)                      33
(PID.TID 0000.0001)     ;
(PID.TID 0000.0001) PTRACERS_SOM_Advection = /* tracer uses SOM advection scheme */
(PID.TID 0000.0001)                   F
(PID.TID 0000.0001)     ;
(PID.TID 0000.0001) PTRACERS_ImplVertAdv = /* implicit vert. advection flag */
(PID.TID 0000.0001)                   F
(PID.TID 0000.0001)     ;
(PID.TID 0000.0001) PTRACERS_diffKh = /* Laplacian Diffusivity */
(PID.TID 0000.0001)                 0.000000000000000E+00
(PID.TID 0000.0001)     ;
(PID.TID 0000.0001) PTRACERS_diffK4 = /* Biharmonic Diffusivity */
(PID.TID 0000.0001)                 0.000000000000000E+00
(PID.TID 0000.0001)     ;
(PID.TID 0000.0001) PTRACERS_diffKrNr = /* Vertical Diffusivity */
(PID.TID 0000.0001)    15 @  1.000000000000000E-05              /* K =  1: 15 */
(PID.TID 0000.0001)     ;
(PID.TID 0000.0001) PTRACERS_useGMRedi = /* apply GM-Redi */
(PID.TID 0000.0001)                   T
(PID.TID 0000.0001)     ;
(PID.TID 0000.0001) PTRACERS_useDWNSLP = /* apply DOWN-SLOPE Flow */
(PID.TID 0000.0001)                   F
(PID.TID 0000.0001)     ;
(PID.TID 0000.0001) PTRACERS_useKPP = /* apply KPP scheme */
(PID.TID 0000.0001)                   F
(PID.TID 0000.0001)     ;
(PID.TID 0000.0001) PTRACERS_ref = /* Reference vertical profile */
(PID.TID 0000.0001)    15 @  0.000000000000000E+00              /* K =  1: 15 */
(PID.TID 0000.0001)     ;
(PID.TID 0000.0001) PTRACERS_EvPrRn =/* tracer conc. in Evap. & Rain */
(PID.TID 0000.0001)                 1.234567000000000E+05
(PID.TID 0000.0001)     ;
(PID.TID 0000.0001)  -----------------------------------
(PID.TID 0000.0001)  tracer number :  196
(PID.TID 0000.0001) PTRACERS_names = /* Tracer short name */
(PID.TID 0000.0001)               'Chl14'
(PID.TID 0000.0001)     ;
(PID.TID 0000.0001) PTRACERS_long_names = /* Tracer long name */
(PID.TID 0000.0001)               ''
(PID.TID 0000.0001)     ;
(PID.TID 0000.0001) PTRACERS_ioLabel = /* tracer IO Label */
(PID.TID 0000.0001)               '1S'
(PID.TID 0000.0001)     ;
(PID.TID 0000.0001) PTRACERS_advScheme = /* Advection Scheme */
(PID.TID 0000.0001)                      33
(PID.TID 0000.0001)     ;
(PID.TID 0000.0001) PTRACERS_SOM_Advection = /* tracer uses SOM advection scheme */
(PID.TID 0000.0001)                   F
(PID.TID 0000.0001)     ;
(PID.TID 0000.0001) PTRACERS_ImplVertAdv = /* implicit vert. advection flag */
(PID.TID 0000.0001)                   F
(PID.TID 0000.0001)     ;
(PID.TID 0000.0001) PTRACERS_diffKh = /* Laplacian Diffusivity */
(PID.TID 0000.0001)                 0.000000000000000E+00
(PID.TID 0000.0001)     ;
(PID.TID 0000.0001) PTRACERS_diffK4 = /* Biharmonic Diffusivity */
(PID.TID 0000.0001)                 0.000000000000000E+00
(PID.TID 0000.0001)     ;
(PID.TID 0000.0001) PTRACERS_diffKrNr = /* Vertical Diffusivity */
(PID.TID 0000.0001)    15 @  1.000000000000000E-05              /* K =  1: 15 */
(PID.TID 0000.0001)     ;
(PID.TID 0000.0001) PTRACERS_useGMRedi = /* apply GM-Redi */
(PID.TID 0000.0001)                   T
(PID.TID 0000.0001)     ;
(PID.TID 0000.0001) PTRACERS_useDWNSLP = /* apply DOWN-SLOPE Flow */
(PID.TID 0000.0001)                   F
(PID.TID 0000.0001)     ;
(PID.TID 0000.0001) PTRACERS_useKPP = /* apply KPP scheme */
(PID.TID 0000.0001)                   F
(PID.TID 0000.0001)     ;
(PID.TID 0000.0001) PTRACERS_ref = /* Reference vertical profile */
(PID.TID 0000.0001)    15 @  0.000000000000000E+00              /* K =  1: 15 */
(PID.TID 0000.0001)     ;
(PID.TID 0000.0001) PTRACERS_EvPrRn =/* tracer conc. in Evap. & Rain */
(PID.TID 0000.0001)                 1.234567000000000E+05
(PID.TID 0000.0001)     ;
(PID.TID 0000.0001)  -----------------------------------
(PID.TID 0000.0001)  tracer number :  197
(PID.TID 0000.0001) PTRACERS_names = /* Tracer short name */
(PID.TID 0000.0001)               'Chl15'
(PID.TID 0000.0001)     ;
(PID.TID 0000.0001) PTRACERS_long_names = /* Tracer long name */
(PID.TID 0000.0001)               ''
(PID.TID 0000.0001)     ;
(PID.TID 0000.0001) PTRACERS_ioLabel = /* tracer IO Label */
(PID.TID 0000.0001)               '1T'
(PID.TID 0000.0001)     ;
(PID.TID 0000.0001) PTRACERS_advScheme = /* Advection Scheme */
(PID.TID 0000.0001)                      33
(PID.TID 0000.0001)     ;
(PID.TID 0000.0001) PTRACERS_SOM_Advection = /* tracer uses SOM advection scheme */
(PID.TID 0000.0001)                   F
(PID.TID 0000.0001)     ;
(PID.TID 0000.0001) PTRACERS_ImplVertAdv = /* implicit vert. advection flag */
(PID.TID 0000.0001)                   F
(PID.TID 0000.0001)     ;
(PID.TID 0000.0001) PTRACERS_diffKh = /* Laplacian Diffusivity */
(PID.TID 0000.0001)                 0.000000000000000E+00
(PID.TID 0000.0001)     ;
(PID.TID 0000.0001) PTRACERS_diffK4 = /* Biharmonic Diffusivity */
(PID.TID 0000.0001)                 0.000000000000000E+00
(PID.TID 0000.0001)     ;
(PID.TID 0000.0001) PTRACERS_diffKrNr = /* Vertical Diffusivity */
(PID.TID 0000.0001)    15 @  1.000000000000000E-05              /* K =  1: 15 */
(PID.TID 0000.0001)     ;
(PID.TID 0000.0001) PTRACERS_useGMRedi = /* apply GM-Redi */
(PID.TID 0000.0001)                   T
(PID.TID 0000.0001)     ;
(PID.TID 0000.0001) PTRACERS_useDWNSLP = /* apply DOWN-SLOPE Flow */
(PID.TID 0000.0001)                   F
(PID.TID 0000.0001)     ;
(PID.TID 0000.0001) PTRACERS_useKPP = /* apply KPP scheme */
(PID.TID 0000.0001)                   F
(PID.TID 0000.0001)     ;
(PID.TID 0000.0001) PTRACERS_ref = /* Reference vertical profile */
(PID.TID 0000.0001)    15 @  0.000000000000000E+00              /* K =  1: 15 */
(PID.TID 0000.0001)     ;
(PID.TID 0000.0001) PTRACERS_EvPrRn =/* tracer conc. in Evap. & Rain */
(PID.TID 0000.0001)                 1.234567000000000E+05
(PID.TID 0000.0001)     ;
(PID.TID 0000.0001)  -----------------------------------
(PID.TID 0000.0001)  tracer number :  198
(PID.TID 0000.0001) PTRACERS_names = /* Tracer short name */
(PID.TID 0000.0001)               'Chl16'
(PID.TID 0000.0001)     ;
(PID.TID 0000.0001) PTRACERS_long_names = /* Tracer long name */
(PID.TID 0000.0001)               ''
(PID.TID 0000.0001)     ;
(PID.TID 0000.0001) PTRACERS_ioLabel = /* tracer IO Label */
(PID.TID 0000.0001)               '1U'
(PID.TID 0000.0001)     ;
(PID.TID 0000.0001) PTRACERS_advScheme = /* Advection Scheme */
(PID.TID 0000.0001)                      33
(PID.TID 0000.0001)     ;
(PID.TID 0000.0001) PTRACERS_SOM_Advection = /* tracer uses SOM advection scheme */
(PID.TID 0000.0001)                   F
(PID.TID 0000.0001)     ;
(PID.TID 0000.0001) PTRACERS_ImplVertAdv = /* implicit vert. advection flag */
(PID.TID 0000.0001)                   F
(PID.TID 0000.0001)     ;
(PID.TID 0000.0001) PTRACERS_diffKh = /* Laplacian Diffusivity */
(PID.TID 0000.0001)                 0.000000000000000E+00
(PID.TID 0000.0001)     ;
(PID.TID 0000.0001) PTRACERS_diffK4 = /* Biharmonic Diffusivity */
(PID.TID 0000.0001)                 0.000000000000000E+00
(PID.TID 0000.0001)     ;
(PID.TID 0000.0001) PTRACERS_diffKrNr = /* Vertical Diffusivity */
(PID.TID 0000.0001)    15 @  1.000000000000000E-05              /* K =  1: 15 */
(PID.TID 0000.0001)     ;
(PID.TID 0000.0001) PTRACERS_useGMRedi = /* apply GM-Redi */
(PID.TID 0000.0001)                   T
(PID.TID 0000.0001)     ;
(PID.TID 0000.0001) PTRACERS_useDWNSLP = /* apply DOWN-SLOPE Flow */
(PID.TID 0000.0001)                   F
(PID.TID 0000.0001)     ;
(PID.TID 0000.0001) PTRACERS_useKPP = /* apply KPP scheme */
(PID.TID 0000.0001)                   F
(PID.TID 0000.0001)     ;
(PID.TID 0000.0001) PTRACERS_ref = /* Reference vertical profile */
(PID.TID 0000.0001)    15 @  0.000000000000000E+00              /* K =  1: 15 */
(PID.TID 0000.0001)     ;
(PID.TID 0000.0001) PTRACERS_EvPrRn =/* tracer conc. in Evap. & Rain */
(PID.TID 0000.0001)                 1.234567000000000E+05
(PID.TID 0000.0001)     ;
(PID.TID 0000.0001)  -----------------------------------
(PID.TID 0000.0001)  tracer number :  199
(PID.TID 0000.0001) PTRACERS_names = /* Tracer short name */
(PID.TID 0000.0001)               'Chl17'
(PID.TID 0000.0001)     ;
(PID.TID 0000.0001) PTRACERS_long_names = /* Tracer long name */
(PID.TID 0000.0001)               ''
(PID.TID 0000.0001)     ;
(PID.TID 0000.0001) PTRACERS_ioLabel = /* tracer IO Label */
(PID.TID 0000.0001)               '1V'
(PID.TID 0000.0001)     ;
(PID.TID 0000.0001) PTRACERS_advScheme = /* Advection Scheme */
(PID.TID 0000.0001)                      33
(PID.TID 0000.0001)     ;
(PID.TID 0000.0001) PTRACERS_SOM_Advection = /* tracer uses SOM advection scheme */
(PID.TID 0000.0001)                   F
(PID.TID 0000.0001)     ;
(PID.TID 0000.0001) PTRACERS_ImplVertAdv = /* implicit vert. advection flag */
(PID.TID 0000.0001)                   F
(PID.TID 0000.0001)     ;
(PID.TID 0000.0001) PTRACERS_diffKh = /* Laplacian Diffusivity */
(PID.TID 0000.0001)                 0.000000000000000E+00
(PID.TID 0000.0001)     ;
(PID.TID 0000.0001) PTRACERS_diffK4 = /* Biharmonic Diffusivity */
(PID.TID 0000.0001)                 0.000000000000000E+00
(PID.TID 0000.0001)     ;
(PID.TID 0000.0001) PTRACERS_diffKrNr = /* Vertical Diffusivity */
(PID.TID 0000.0001)    15 @  1.000000000000000E-05              /* K =  1: 15 */
(PID.TID 0000.0001)     ;
(PID.TID 0000.0001) PTRACERS_useGMRedi = /* apply GM-Redi */
(PID.TID 0000.0001)                   T
(PID.TID 0000.0001)     ;
(PID.TID 0000.0001) PTRACERS_useDWNSLP = /* apply DOWN-SLOPE Flow */
(PID.TID 0000.0001)                   F
(PID.TID 0000.0001)     ;
(PID.TID 0000.0001) PTRACERS_useKPP = /* apply KPP scheme */
(PID.TID 0000.0001)                   F
(PID.TID 0000.0001)     ;
(PID.TID 0000.0001) PTRACERS_ref = /* Reference vertical profile */
(PID.TID 0000.0001)    15 @  0.000000000000000E+00              /* K =  1: 15 */
(PID.TID 0000.0001)     ;
(PID.TID 0000.0001) PTRACERS_EvPrRn =/* tracer conc. in Evap. & Rain */
(PID.TID 0000.0001)                 1.234567000000000E+05
(PID.TID 0000.0001)     ;
(PID.TID 0000.0001)  -----------------------------------
(PID.TID 0000.0001)  tracer number :  200
(PID.TID 0000.0001) PTRACERS_names = /* Tracer short name */
(PID.TID 0000.0001)               'Chl18'
(PID.TID 0000.0001)     ;
(PID.TID 0000.0001) PTRACERS_long_names = /* Tracer long name */
(PID.TID 0000.0001)               ''
(PID.TID 0000.0001)     ;
(PID.TID 0000.0001) PTRACERS_ioLabel = /* tracer IO Label */
(PID.TID 0000.0001)               '1W'
(PID.TID 0000.0001)     ;
(PID.TID 0000.0001) PTRACERS_advScheme = /* Advection Scheme */
(PID.TID 0000.0001)                      33
(PID.TID 0000.0001)     ;
(PID.TID 0000.0001) PTRACERS_SOM_Advection = /* tracer uses SOM advection scheme */
(PID.TID 0000.0001)                   F
(PID.TID 0000.0001)     ;
(PID.TID 0000.0001) PTRACERS_ImplVertAdv = /* implicit vert. advection flag */
(PID.TID 0000.0001)                   F
(PID.TID 0000.0001)     ;
(PID.TID 0000.0001) PTRACERS_diffKh = /* Laplacian Diffusivity */
(PID.TID 0000.0001)                 0.000000000000000E+00
(PID.TID 0000.0001)     ;
(PID.TID 0000.0001) PTRACERS_diffK4 = /* Biharmonic Diffusivity */
(PID.TID 0000.0001)                 0.000000000000000E+00
(PID.TID 0000.0001)     ;
(PID.TID 0000.0001) PTRACERS_diffKrNr = /* Vertical Diffusivity */
(PID.TID 0000.0001)    15 @  1.000000000000000E-05              /* K =  1: 15 */
(PID.TID 0000.0001)     ;
(PID.TID 0000.0001) PTRACERS_useGMRedi = /* apply GM-Redi */
(PID.TID 0000.0001)                   T
(PID.TID 0000.0001)     ;
(PID.TID 0000.0001) PTRACERS_useDWNSLP = /* apply DOWN-SLOPE Flow */
(PID.TID 0000.0001)                   F
(PID.TID 0000.0001)     ;
(PID.TID 0000.0001) PTRACERS_useKPP = /* apply KPP scheme */
(PID.TID 0000.0001)                   F
(PID.TID 0000.0001)     ;
(PID.TID 0000.0001) PTRACERS_ref = /* Reference vertical profile */
(PID.TID 0000.0001)    15 @  0.000000000000000E+00              /* K =  1: 15 */
(PID.TID 0000.0001)     ;
(PID.TID 0000.0001) PTRACERS_EvPrRn =/* tracer conc. in Evap. & Rain */
(PID.TID 0000.0001)                 1.234567000000000E+05
(PID.TID 0000.0001)     ;
(PID.TID 0000.0001)  -----------------------------------
(PID.TID 0000.0001)  tracer number :  201
(PID.TID 0000.0001) PTRACERS_names = /* Tracer short name */
(PID.TID 0000.0001)               'Chl19'
(PID.TID 0000.0001)     ;
(PID.TID 0000.0001) PTRACERS_long_names = /* Tracer long name */
(PID.TID 0000.0001)               ''
(PID.TID 0000.0001)     ;
(PID.TID 0000.0001) PTRACERS_ioLabel = /* tracer IO Label */
(PID.TID 0000.0001)               '1X'
(PID.TID 0000.0001)     ;
(PID.TID 0000.0001) PTRACERS_advScheme = /* Advection Scheme */
(PID.TID 0000.0001)                      33
(PID.TID 0000.0001)     ;
(PID.TID 0000.0001) PTRACERS_SOM_Advection = /* tracer uses SOM advection scheme */
(PID.TID 0000.0001)                   F
(PID.TID 0000.0001)     ;
(PID.TID 0000.0001) PTRACERS_ImplVertAdv = /* implicit vert. advection flag */
(PID.TID 0000.0001)                   F
(PID.TID 0000.0001)     ;
(PID.TID 0000.0001) PTRACERS_diffKh = /* Laplacian Diffusivity */
(PID.TID 0000.0001)                 0.000000000000000E+00
(PID.TID 0000.0001)     ;
(PID.TID 0000.0001) PTRACERS_diffK4 = /* Biharmonic Diffusivity */
(PID.TID 0000.0001)                 0.000000000000000E+00
(PID.TID 0000.0001)     ;
(PID.TID 0000.0001) PTRACERS_diffKrNr = /* Vertical Diffusivity */
(PID.TID 0000.0001)    15 @  1.000000000000000E-05              /* K =  1: 15 */
(PID.TID 0000.0001)     ;
(PID.TID 0000.0001) PTRACERS_useGMRedi = /* apply GM-Redi */
(PID.TID 0000.0001)                   T
(PID.TID 0000.0001)     ;
(PID.TID 0000.0001) PTRACERS_useDWNSLP = /* apply DOWN-SLOPE Flow */
(PID.TID 0000.0001)                   F
(PID.TID 0000.0001)     ;
(PID.TID 0000.0001) PTRACERS_useKPP = /* apply KPP scheme */
(PID.TID 0000.0001)                   F
(PID.TID 0000.0001)     ;
(PID.TID 0000.0001) PTRACERS_ref = /* Reference vertical profile */
(PID.TID 0000.0001)    15 @  0.000000000000000E+00              /* K =  1: 15 */
(PID.TID 0000.0001)     ;
(PID.TID 0000.0001) PTRACERS_EvPrRn =/* tracer conc. in Evap. & Rain */
(PID.TID 0000.0001)                 1.234567000000000E+05
(PID.TID 0000.0001)     ;
(PID.TID 0000.0001)  -----------------------------------
(PID.TID 0000.0001)  tracer number :  202
(PID.TID 0000.0001) PTRACERS_names = /* Tracer short name */
(PID.TID 0000.0001)               'Chl20'
(PID.TID 0000.0001)     ;
(PID.TID 0000.0001) PTRACERS_long_names = /* Tracer long name */
(PID.TID 0000.0001)               ''
(PID.TID 0000.0001)     ;
(PID.TID 0000.0001) PTRACERS_ioLabel = /* tracer IO Label */
(PID.TID 0000.0001)               '1Y'
(PID.TID 0000.0001)     ;
(PID.TID 0000.0001) PTRACERS_advScheme = /* Advection Scheme */
(PID.TID 0000.0001)                      33
(PID.TID 0000.0001)     ;
(PID.TID 0000.0001) PTRACERS_SOM_Advection = /* tracer uses SOM advection scheme */
(PID.TID 0000.0001)                   F
(PID.TID 0000.0001)     ;
(PID.TID 0000.0001) PTRACERS_ImplVertAdv = /* implicit vert. advection flag */
(PID.TID 0000.0001)                   F
(PID.TID 0000.0001)     ;
(PID.TID 0000.0001) PTRACERS_diffKh = /* Laplacian Diffusivity */
(PID.TID 0000.0001)                 0.000000000000000E+00
(PID.TID 0000.0001)     ;
(PID.TID 0000.0001) PTRACERS_diffK4 = /* Biharmonic Diffusivity */
(PID.TID 0000.0001)                 0.000000000000000E+00
(PID.TID 0000.0001)     ;
(PID.TID 0000.0001) PTRACERS_diffKrNr = /* Vertical Diffusivity */
(PID.TID 0000.0001)    15 @  1.000000000000000E-05              /* K =  1: 15 */
(PID.TID 0000.0001)     ;
(PID.TID 0000.0001) PTRACERS_useGMRedi = /* apply GM-Redi */
(PID.TID 0000.0001)                   T
(PID.TID 0000.0001)     ;
(PID.TID 0000.0001) PTRACERS_useDWNSLP = /* apply DOWN-SLOPE Flow */
(PID.TID 0000.0001)                   F
(PID.TID 0000.0001)     ;
(PID.TID 0000.0001) PTRACERS_useKPP = /* apply KPP scheme */
(PID.TID 0000.0001)                   F
(PID.TID 0000.0001)     ;
(PID.TID 0000.0001) PTRACERS_ref = /* Reference vertical profile */
(PID.TID 0000.0001)    15 @  0.000000000000000E+00              /* K =  1: 15 */
(PID.TID 0000.0001)     ;
(PID.TID 0000.0001) PTRACERS_EvPrRn =/* tracer conc. in Evap. & Rain */
(PID.TID 0000.0001)                 1.234567000000000E+05
(PID.TID 0000.0001)     ;
(PID.TID 0000.0001)  -----------------------------------
(PID.TID 0000.0001)  tracer number :  203
(PID.TID 0000.0001) PTRACERS_names = /* Tracer short name */
(PID.TID 0000.0001)               'Chl21'
(PID.TID 0000.0001)     ;
(PID.TID 0000.0001) PTRACERS_long_names = /* Tracer long name */
(PID.TID 0000.0001)               ''
(PID.TID 0000.0001)     ;
(PID.TID 0000.0001) PTRACERS_ioLabel = /* tracer IO Label */
(PID.TID 0000.0001)               '1Z'
(PID.TID 0000.0001)     ;
(PID.TID 0000.0001) PTRACERS_advScheme = /* Advection Scheme */
(PID.TID 0000.0001)                      33
(PID.TID 0000.0001)     ;
(PID.TID 0000.0001) PTRACERS_SOM_Advection = /* tracer uses SOM advection scheme */
(PID.TID 0000.0001)                   F
(PID.TID 0000.0001)     ;
(PID.TID 0000.0001) PTRACERS_ImplVertAdv = /* implicit vert. advection flag */
(PID.TID 0000.0001)                   F
(PID.TID 0000.0001)     ;
(PID.TID 0000.0001) PTRACERS_diffKh = /* Laplacian Diffusivity */
(PID.TID 0000.0001)                 0.000000000000000E+00
(PID.TID 0000.0001)     ;
(PID.TID 0000.0001) PTRACERS_diffK4 = /* Biharmonic Diffusivity */
(PID.TID 0000.0001)                 0.000000000000000E+00
(PID.TID 0000.0001)     ;
(PID.TID 0000.0001) PTRACERS_diffKrNr = /* Vertical Diffusivity */
(PID.TID 0000.0001)    15 @  1.000000000000000E-05              /* K =  1: 15 */
(PID.TID 0000.0001)     ;
(PID.TID 0000.0001) PTRACERS_useGMRedi = /* apply GM-Redi */
(PID.TID 0000.0001)                   T
(PID.TID 0000.0001)     ;
(PID.TID 0000.0001) PTRACERS_useDWNSLP = /* apply DOWN-SLOPE Flow */
(PID.TID 0000.0001)                   F
(PID.TID 0000.0001)     ;
(PID.TID 0000.0001) PTRACERS_useKPP = /* apply KPP scheme */
(PID.TID 0000.0001)                   F
(PID.TID 0000.0001)     ;
(PID.TID 0000.0001) PTRACERS_ref = /* Reference vertical profile */
(PID.TID 0000.0001)    15 @  0.000000000000000E+00              /* K =  1: 15 */
(PID.TID 0000.0001)     ;
(PID.TID 0000.0001) PTRACERS_EvPrRn =/* tracer conc. in Evap. & Rain */
(PID.TID 0000.0001)                 1.234567000000000E+05
(PID.TID 0000.0001)     ;
(PID.TID 0000.0001)  -----------------------------------
(PID.TID 0000.0001)  tracer number :  204
(PID.TID 0000.0001) PTRACERS_names = /* Tracer short name */
(PID.TID 0000.0001)               'Chl22'
(PID.TID 0000.0001)     ;
(PID.TID 0000.0001) PTRACERS_long_names = /* Tracer long name */
(PID.TID 0000.0001)               ''
(PID.TID 0000.0001)     ;
(PID.TID 0000.0001) PTRACERS_ioLabel = /* tracer IO Label */
(PID.TID 0000.0001)               '2a'
(PID.TID 0000.0001)     ;
(PID.TID 0000.0001) PTRACERS_advScheme = /* Advection Scheme */
(PID.TID 0000.0001)                      33
(PID.TID 0000.0001)     ;
(PID.TID 0000.0001) PTRACERS_SOM_Advection = /* tracer uses SOM advection scheme */
(PID.TID 0000.0001)                   F
(PID.TID 0000.0001)     ;
(PID.TID 0000.0001) PTRACERS_ImplVertAdv = /* implicit vert. advection flag */
(PID.TID 0000.0001)                   F
(PID.TID 0000.0001)     ;
(PID.TID 0000.0001) PTRACERS_diffKh = /* Laplacian Diffusivity */
(PID.TID 0000.0001)                 0.000000000000000E+00
(PID.TID 0000.0001)     ;
(PID.TID 0000.0001) PTRACERS_diffK4 = /* Biharmonic Diffusivity */
(PID.TID 0000.0001)                 0.000000000000000E+00
(PID.TID 0000.0001)     ;
(PID.TID 0000.0001) PTRACERS_diffKrNr = /* Vertical Diffusivity */
(PID.TID 0000.0001)    15 @  1.000000000000000E-05              /* K =  1: 15 */
(PID.TID 0000.0001)     ;
(PID.TID 0000.0001) PTRACERS_useGMRedi = /* apply GM-Redi */
(PID.TID 0000.0001)                   T
(PID.TID 0000.0001)     ;
(PID.TID 0000.0001) PTRACERS_useDWNSLP = /* apply DOWN-SLOPE Flow */
(PID.TID 0000.0001)                   F
(PID.TID 0000.0001)     ;
(PID.TID 0000.0001) PTRACERS_useKPP = /* apply KPP scheme */
(PID.TID 0000.0001)                   F
(PID.TID 0000.0001)     ;
(PID.TID 0000.0001) PTRACERS_ref = /* Reference vertical profile */
(PID.TID 0000.0001)    15 @  0.000000000000000E+00              /* K =  1: 15 */
(PID.TID 0000.0001)     ;
(PID.TID 0000.0001) PTRACERS_EvPrRn =/* tracer conc. in Evap. & Rain */
(PID.TID 0000.0001)                 1.234567000000000E+05
(PID.TID 0000.0001)     ;
(PID.TID 0000.0001)  -----------------------------------
(PID.TID 0000.0001)  tracer number :  205
(PID.TID 0000.0001) PTRACERS_names = /* Tracer short name */
(PID.TID 0000.0001)               'Chl23'
(PID.TID 0000.0001)     ;
(PID.TID 0000.0001) PTRACERS_long_names = /* Tracer long name */
(PID.TID 0000.0001)               ''
(PID.TID 0000.0001)     ;
(PID.TID 0000.0001) PTRACERS_ioLabel = /* tracer IO Label */
(PID.TID 0000.0001)               '2b'
(PID.TID 0000.0001)     ;
(PID.TID 0000.0001) PTRACERS_advScheme = /* Advection Scheme */
(PID.TID 0000.0001)                      33
(PID.TID 0000.0001)     ;
(PID.TID 0000.0001) PTRACERS_SOM_Advection = /* tracer uses SOM advection scheme */
(PID.TID 0000.0001)                   F
(PID.TID 0000.0001)     ;
(PID.TID 0000.0001) PTRACERS_ImplVertAdv = /* implicit vert. advection flag */
(PID.TID 0000.0001)                   F
(PID.TID 0000.0001)     ;
(PID.TID 0000.0001) PTRACERS_diffKh = /* Laplacian Diffusivity */
(PID.TID 0000.0001)                 0.000000000000000E+00
(PID.TID 0000.0001)     ;
(PID.TID 0000.0001) PTRACERS_diffK4 = /* Biharmonic Diffusivity */
(PID.TID 0000.0001)                 0.000000000000000E+00
(PID.TID 0000.0001)     ;
(PID.TID 0000.0001) PTRACERS_diffKrNr = /* Vertical Diffusivity */
(PID.TID 0000.0001)    15 @  1.000000000000000E-05              /* K =  1: 15 */
(PID.TID 0000.0001)     ;
(PID.TID 0000.0001) PTRACERS_useGMRedi = /* apply GM-Redi */
(PID.TID 0000.0001)                   T
(PID.TID 0000.0001)     ;
(PID.TID 0000.0001) PTRACERS_useDWNSLP = /* apply DOWN-SLOPE Flow */
(PID.TID 0000.0001)                   F
(PID.TID 0000.0001)     ;
(PID.TID 0000.0001) PTRACERS_useKPP = /* apply KPP scheme */
(PID.TID 0000.0001)                   F
(PID.TID 0000.0001)     ;
(PID.TID 0000.0001) PTRACERS_ref = /* Reference vertical profile */
(PID.TID 0000.0001)    15 @  0.000000000000000E+00              /* K =  1: 15 */
(PID.TID 0000.0001)     ;
(PID.TID 0000.0001) PTRACERS_EvPrRn =/* tracer conc. in Evap. & Rain */
(PID.TID 0000.0001)                 1.234567000000000E+05
(PID.TID 0000.0001)     ;
(PID.TID 0000.0001)  -----------------------------------
(PID.TID 0000.0001)  tracer number :  206
(PID.TID 0000.0001) PTRACERS_names = /* Tracer short name */
(PID.TID 0000.0001)               'Chl24'
(PID.TID 0000.0001)     ;
(PID.TID 0000.0001) PTRACERS_long_names = /* Tracer long name */
(PID.TID 0000.0001)               ''
(PID.TID 0000.0001)     ;
(PID.TID 0000.0001) PTRACERS_ioLabel = /* tracer IO Label */
(PID.TID 0000.0001)               '2c'
(PID.TID 0000.0001)     ;
(PID.TID 0000.0001) PTRACERS_advScheme = /* Advection Scheme */
(PID.TID 0000.0001)                      33
(PID.TID 0000.0001)     ;
(PID.TID 0000.0001) PTRACERS_SOM_Advection = /* tracer uses SOM advection scheme */
(PID.TID 0000.0001)                   F
(PID.TID 0000.0001)     ;
(PID.TID 0000.0001) PTRACERS_ImplVertAdv = /* implicit vert. advection flag */
(PID.TID 0000.0001)                   F
(PID.TID 0000.0001)     ;
(PID.TID 0000.0001) PTRACERS_diffKh = /* Laplacian Diffusivity */
(PID.TID 0000.0001)                 0.000000000000000E+00
(PID.TID 0000.0001)     ;
(PID.TID 0000.0001) PTRACERS_diffK4 = /* Biharmonic Diffusivity */
(PID.TID 0000.0001)                 0.000000000000000E+00
(PID.TID 0000.0001)     ;
(PID.TID 0000.0001) PTRACERS_diffKrNr = /* Vertical Diffusivity */
(PID.TID 0000.0001)    15 @  1.000000000000000E-05              /* K =  1: 15 */
(PID.TID 0000.0001)     ;
(PID.TID 0000.0001) PTRACERS_useGMRedi = /* apply GM-Redi */
(PID.TID 0000.0001)                   T
(PID.TID 0000.0001)     ;
(PID.TID 0000.0001) PTRACERS_useDWNSLP = /* apply DOWN-SLOPE Flow */
(PID.TID 0000.0001)                   F
(PID.TID 0000.0001)     ;
(PID.TID 0000.0001) PTRACERS_useKPP = /* apply KPP scheme */
(PID.TID 0000.0001)                   F
(PID.TID 0000.0001)     ;
(PID.TID 0000.0001) PTRACERS_ref = /* Reference vertical profile */
(PID.TID 0000.0001)    15 @  0.000000000000000E+00              /* K =  1: 15 */
(PID.TID 0000.0001)     ;
(PID.TID 0000.0001) PTRACERS_EvPrRn =/* tracer conc. in Evap. & Rain */
(PID.TID 0000.0001)                 1.234567000000000E+05
(PID.TID 0000.0001)     ;
(PID.TID 0000.0001)  -----------------------------------
(PID.TID 0000.0001)  tracer number :  207
(PID.TID 0000.0001) PTRACERS_names = /* Tracer short name */
(PID.TID 0000.0001)               'Chl25'
(PID.TID 0000.0001)     ;
(PID.TID 0000.0001) PTRACERS_long_names = /* Tracer long name */
(PID.TID 0000.0001)               ''
(PID.TID 0000.0001)     ;
(PID.TID 0000.0001) PTRACERS_ioLabel = /* tracer IO Label */
(PID.TID 0000.0001)               '2d'
(PID.TID 0000.0001)     ;
(PID.TID 0000.0001) PTRACERS_advScheme = /* Advection Scheme */
(PID.TID 0000.0001)                      33
(PID.TID 0000.0001)     ;
(PID.TID 0000.0001) PTRACERS_SOM_Advection = /* tracer uses SOM advection scheme */
(PID.TID 0000.0001)                   F
(PID.TID 0000.0001)     ;
(PID.TID 0000.0001) PTRACERS_ImplVertAdv = /* implicit vert. advection flag */
(PID.TID 0000.0001)                   F
(PID.TID 0000.0001)     ;
(PID.TID 0000.0001) PTRACERS_diffKh = /* Laplacian Diffusivity */
(PID.TID 0000.0001)                 0.000000000000000E+00
(PID.TID 0000.0001)     ;
(PID.TID 0000.0001) PTRACERS_diffK4 = /* Biharmonic Diffusivity */
(PID.TID 0000.0001)                 0.000000000000000E+00
(PID.TID 0000.0001)     ;
(PID.TID 0000.0001) PTRACERS_diffKrNr = /* Vertical Diffusivity */
(PID.TID 0000.0001)    15 @  1.000000000000000E-05              /* K =  1: 15 */
(PID.TID 0000.0001)     ;
(PID.TID 0000.0001) PTRACERS_useGMRedi = /* apply GM-Redi */
(PID.TID 0000.0001)                   T
(PID.TID 0000.0001)     ;
(PID.TID 0000.0001) PTRACERS_useDWNSLP = /* apply DOWN-SLOPE Flow */
(PID.TID 0000.0001)                   F
(PID.TID 0000.0001)     ;
(PID.TID 0000.0001) PTRACERS_useKPP = /* apply KPP scheme */
(PID.TID 0000.0001)                   F
(PID.TID 0000.0001)     ;
(PID.TID 0000.0001) PTRACERS_ref = /* Reference vertical profile */
(PID.TID 0000.0001)    15 @  0.000000000000000E+00              /* K =  1: 15 */
(PID.TID 0000.0001)     ;
(PID.TID 0000.0001) PTRACERS_EvPrRn =/* tracer conc. in Evap. & Rain */
(PID.TID 0000.0001)                 1.234567000000000E+05
(PID.TID 0000.0001)     ;
(PID.TID 0000.0001)  -----------------------------------
(PID.TID 0000.0001) GCHEM_CHECK: #define ALLOW_GCHEM
(PID.TID 0000.0001) DARWIN_CHECK: #define ALLOW_DARWIN
(PID.TID 0000.0001) DARWIN_CHECK: iPtr darwin   PTRACERS_names
(PID.TID 0000.0001) DARWIN_CHECK:    1 DIC      DIC
(PID.TID 0000.0001) DARWIN_CHECK:    2 NH4      NH4
(PID.TID 0000.0001) DARWIN_CHECK:    3 NO2      NO2
(PID.TID 0000.0001) DARWIN_CHECK:    4 NO3      NO3
(PID.TID 0000.0001) DARWIN_CHECK:    5 PO4      PO4
(PID.TID 0000.0001) DARWIN_CHECK:    6 SiO2     SiO2
(PID.TID 0000.0001) DARWIN_CHECK:    7 FeT      FeT
(PID.TID 0000.0001) DARWIN_CHECK:    8 DOC      DOC
(PID.TID 0000.0001) DARWIN_CHECK:    9 DON      DON
(PID.TID 0000.0001) DARWIN_CHECK:   10 DOP      DOP
(PID.TID 0000.0001) DARWIN_CHECK:   11 DOFe     DOFe
(PID.TID 0000.0001) DARWIN_CHECK:   12 POC      POC
(PID.TID 0000.0001) DARWIN_CHECK:   13 PON      PON
(PID.TID 0000.0001) DARWIN_CHECK:   14 POP      POP
(PID.TID 0000.0001) DARWIN_CHECK:   15 POSi     POSi
(PID.TID 0000.0001) DARWIN_CHECK:   16 POFe     POFe
(PID.TID 0000.0001) DARWIN_CHECK:   17 PIC      PIC
(PID.TID 0000.0001) DARWIN_CHECK:   18 c    (1) c01
(PID.TID 0000.0001) DARWIN_CHECK:   19 c    (2) c02
(PID.TID 0000.0001) DARWIN_CHECK:   20 c    (3) c03
(PID.TID 0000.0001) DARWIN_CHECK:   21 c    (4) c04
(PID.TID 0000.0001) DARWIN_CHECK:   22 c    (5) c05
(PID.TID 0000.0001) DARWIN_CHECK:   23 c    (6) c06
(PID.TID 0000.0001) DARWIN_CHECK:   24 c    (7) c07
(PID.TID 0000.0001) DARWIN_CHECK:   25 c    (8) c08
(PID.TID 0000.0001) DARWIN_CHECK:   26 c    (9) c09
(PID.TID 0000.0001) DARWIN_CHECK:   27 c    (*) c10
(PID.TID 0000.0001) DARWIN_CHECK:   28 c    (*) c11
(PID.TID 0000.0001) DARWIN_CHECK:   29 c    (*) c12
(PID.TID 0000.0001) DARWIN_CHECK:   30 c    (*) c13
(PID.TID 0000.0001) DARWIN_CHECK:   31 c    (*) c14
(PID.TID 0000.0001) DARWIN_CHECK:   32 c    (*) c15
(PID.TID 0000.0001) DARWIN_CHECK:   33 c    (*) c16
(PID.TID 0000.0001) DARWIN_CHECK:   34 c    (*) c17
(PID.TID 0000.0001) DARWIN_CHECK:   35 c    (*) c18
(PID.TID 0000.0001) DARWIN_CHECK:   36 c    (*) c19
(PID.TID 0000.0001) DARWIN_CHECK:   37 c    (*) c20
(PID.TID 0000.0001) DARWIN_CHECK:   38 c    (*) c21
(PID.TID 0000.0001) DARWIN_CHECK:   39 c    (*) c22
(PID.TID 0000.0001) DARWIN_CHECK:   40 c    (*) c23
(PID.TID 0000.0001) DARWIN_CHECK:   41 c    (*) c24
(PID.TID 0000.0001) DARWIN_CHECK:   42 c    (*) c25
(PID.TID 0000.0001) DARWIN_CHECK:   43 c    (*) c26
(PID.TID 0000.0001) DARWIN_CHECK:   44 c    (*) c27
(PID.TID 0000.0001) DARWIN_CHECK:   45 c    (*) c28
(PID.TID 0000.0001) DARWIN_CHECK:   46 c    (*) c29
(PID.TID 0000.0001) DARWIN_CHECK:   47 c    (*) c30
(PID.TID 0000.0001) DARWIN_CHECK:   48 c    (*) c31
(PID.TID 0000.0001) DARWIN_CHECK:   49 c    (*) c32
(PID.TID 0000.0001) DARWIN_CHECK:   50 c    (*) c33
(PID.TID 0000.0001) DARWIN_CHECK:   51 c    (*) c34
(PID.TID 0000.0001) DARWIN_CHECK:   52 c    (*) c35
(PID.TID 0000.0001) DARWIN_CHECK:   53 c    (*) c36
(PID.TID 0000.0001) DARWIN_CHECK:   54 c    (*) c37
(PID.TID 0000.0001) DARWIN_CHECK:   55 c    (*) c38
(PID.TID 0000.0001) DARWIN_CHECK:   56 c    (*) c39
(PID.TID 0000.0001) DARWIN_CHECK:   57 c    (*) c40
(PID.TID 0000.0001) DARWIN_CHECK:   58 c    (*) c41
(PID.TID 0000.0001) DARWIN_CHECK:   59 c    (*) c42
(PID.TID 0000.0001) DARWIN_CHECK:   60 c    (*) c43
(PID.TID 0000.0001) DARWIN_CHECK:   61 c    (*) c44
(PID.TID 0000.0001) DARWIN_CHECK:   62 c    (*) c45
(PID.TID 0000.0001) DARWIN_CHECK:   63 c    (*) c46
(PID.TID 0000.0001) DARWIN_CHECK:   64 c    (*) c47
(PID.TID 0000.0001) DARWIN_CHECK:   65 c    (*) c48
(PID.TID 0000.0001) DARWIN_CHECK:   66 c    (*) c49
(PID.TID 0000.0001) DARWIN_CHECK:   67 c    (*) c50
(PID.TID 0000.0001) DARWIN_CHECK:   68 c    (*) c51
(PID.TID 0000.0001) DARWIN_CHECK:   69 c    (*) c52
(PID.TID 0000.0001) DARWIN_CHECK:   70 c    (*) c53
(PID.TID 0000.0001) DARWIN_CHECK:   71 c    (*) c54
(PID.TID 0000.0001) DARWIN_CHECK:   72 c    (*) c55
(PID.TID 0000.0001) DARWIN_CHECK:   73 n    (1) n01
(PID.TID 0000.0001) DARWIN_CHECK:   74 n    (2) n02
(PID.TID 0000.0001) DARWIN_CHECK:   75 n    (3) n03
(PID.TID 0000.0001) DARWIN_CHECK:   76 n    (4) n04
(PID.TID 0000.0001) DARWIN_CHECK:   77 n    (5) n05
(PID.TID 0000.0001) DARWIN_CHECK:   78 n    (6) n06
(PID.TID 0000.0001) DARWIN_CHECK:   79 n    (7) n07
(PID.TID 0000.0001) DARWIN_CHECK:   80 n    (8) n08
(PID.TID 0000.0001) DARWIN_CHECK:   81 n    (9) n09
(PID.TID 0000.0001) DARWIN_CHECK:   82 n    (*) n10
(PID.TID 0000.0001) DARWIN_CHECK:   83 n    (*) n11
(PID.TID 0000.0001) DARWIN_CHECK:   84 n    (*) n12
(PID.TID 0000.0001) DARWIN_CHECK:   85 n    (*) n13
(PID.TID 0000.0001) DARWIN_CHECK:   86 n    (*) n14
(PID.TID 0000.0001) DARWIN_CHECK:   87 n    (*) n15
(PID.TID 0000.0001) DARWIN_CHECK:   88 n    (*) n16
(PID.TID 0000.0001) DARWIN_CHECK:   89 n    (*) n17
(PID.TID 0000.0001) DARWIN_CHECK:   90 n    (*) n18
(PID.TID 0000.0001) DARWIN_CHECK:   91 n    (*) n19
(PID.TID 0000.0001) DARWIN_CHECK:   92 n    (*) n20
(PID.TID 0000.0001) DARWIN_CHECK:   93 n    (*) n21
(PID.TID 0000.0001) DARWIN_CHECK:   94 n    (*) n22
(PID.TID 0000.0001) DARWIN_CHECK:   95 n    (*) n23
(PID.TID 0000.0001) DARWIN_CHECK:   96 n    (*) n24
(PID.TID 0000.0001) DARWIN_CHECK:   97 n    (*) n25
(PID.TID 0000.0001) DARWIN_CHECK:   98 n    (*) n26
(PID.TID 0000.0001) DARWIN_CHECK:   99 n    (*) n27
(PID.TID 0000.0001) DARWIN_CHECK:  100 n    (*) n28
(PID.TID 0000.0001) DARWIN_CHECK:  101 n    (*) n29
(PID.TID 0000.0001) DARWIN_CHECK:  102 n    (*) n30
(PID.TID 0000.0001) DARWIN_CHECK:  103 n    (*) n31
(PID.TID 0000.0001) DARWIN_CHECK:  104 n    (*) n32
(PID.TID 0000.0001) DARWIN_CHECK:  105 n    (*) n33
(PID.TID 0000.0001) DARWIN_CHECK:  106 n    (*) n34
(PID.TID 0000.0001) DARWIN_CHECK:  107 n    (*) n35
(PID.TID 0000.0001) DARWIN_CHECK:  108 n    (*) n36
(PID.TID 0000.0001) DARWIN_CHECK:  109 n    (*) n37
(PID.TID 0000.0001) DARWIN_CHECK:  110 n    (*) n38
(PID.TID 0000.0001) DARWIN_CHECK:  111 n    (*) n39
(PID.TID 0000.0001) DARWIN_CHECK:  112 n    (*) n40
(PID.TID 0000.0001) DARWIN_CHECK:  113 n    (*) n41
(PID.TID 0000.0001) DARWIN_CHECK:  114 n    (*) n42
(PID.TID 0000.0001) DARWIN_CHECK:  115 n    (*) n43
(PID.TID 0000.0001) DARWIN_CHECK:  116 n    (*) n44
(PID.TID 0000.0001) DARWIN_CHECK:  117 n    (*) n45
(PID.TID 0000.0001) DARWIN_CHECK:  118 n    (*) n46
(PID.TID 0000.0001) DARWIN_CHECK:  119 n    (*) n47
(PID.TID 0000.0001) DARWIN_CHECK:  120 n    (*) n48
(PID.TID 0000.0001) DARWIN_CHECK:  121 n    (*) n49
(PID.TID 0000.0001) DARWIN_CHECK:  122 n    (*) n50
(PID.TID 0000.0001) DARWIN_CHECK:  123 n    (*) n51
(PID.TID 0000.0001) DARWIN_CHECK:  124 n    (*) n52
(PID.TID 0000.0001) DARWIN_CHECK:  125 n    (*) n53
(PID.TID 0000.0001) DARWIN_CHECK:  126 n    (*) n54
(PID.TID 0000.0001) DARWIN_CHECK:  127 n    (*) n55
(PID.TID 0000.0001) DARWIN_CHECK:  128 fe   (1) fe01
(PID.TID 0000.0001) DARWIN_CHECK:  129 fe   (2) fe02
(PID.TID 0000.0001) DARWIN_CHECK:  130 fe   (3) fe03
(PID.TID 0000.0001) DARWIN_CHECK:  131 fe   (4) fe04
(PID.TID 0000.0001) DARWIN_CHECK:  132 fe   (5) fe05
(PID.TID 0000.0001) DARWIN_CHECK:  133 fe   (6) fe06
(PID.TID 0000.0001) DARWIN_CHECK:  134 fe   (7) fe07
(PID.TID 0000.0001) DARWIN_CHECK:  135 fe   (8) fe08
(PID.TID 0000.0001) DARWIN_CHECK:  136 fe   (9) fe09
(PID.TID 0000.0001) DARWIN_CHECK:  137 fe   (*) fe10
(PID.TID 0000.0001) DARWIN_CHECK:  138 fe   (*) fe11
(PID.TID 0000.0001) DARWIN_CHECK:  139 fe   (*) fe12
(PID.TID 0000.0001) DARWIN_CHECK:  140 fe   (*) fe13
(PID.TID 0000.0001) DARWIN_CHECK:  141 fe   (*) fe14
(PID.TID 0000.0001) DARWIN_CHECK:  142 fe   (*) fe15
(PID.TID 0000.0001) DARWIN_CHECK:  143 fe   (*) fe16
(PID.TID 0000.0001) DARWIN_CHECK:  144 fe   (*) fe17
(PID.TID 0000.0001) DARWIN_CHECK:  145 fe   (*) fe18
(PID.TID 0000.0001) DARWIN_CHECK:  146 fe   (*) fe19
(PID.TID 0000.0001) DARWIN_CHECK:  147 fe   (*) fe20
(PID.TID 0000.0001) DARWIN_CHECK:  148 fe   (*) fe21
(PID.TID 0000.0001) DARWIN_CHECK:  149 fe   (*) fe22
(PID.TID 0000.0001) DARWIN_CHECK:  150 fe   (*) fe23
(PID.TID 0000.0001) DARWIN_CHECK:  151 fe   (*) fe24
(PID.TID 0000.0001) DARWIN_CHECK:  152 fe   (*) fe25
(PID.TID 0000.0001) DARWIN_CHECK:  153 fe   (*) fe26
(PID.TID 0000.0001) DARWIN_CHECK:  154 fe   (*) fe27
(PID.TID 0000.0001) DARWIN_CHECK:  155 fe   (*) fe28
(PID.TID 0000.0001) DARWIN_CHECK:  156 fe   (*) fe29
(PID.TID 0000.0001) DARWIN_CHECK:  157 fe   (*) fe30
(PID.TID 0000.0001) DARWIN_CHECK:  158 fe   (*) fe31
(PID.TID 0000.0001) DARWIN_CHECK:  159 fe   (*) fe32
(PID.TID 0000.0001) DARWIN_CHECK:  160 fe   (*) fe33
(PID.TID 0000.0001) DARWIN_CHECK:  161 fe   (*) fe34
(PID.TID 0000.0001) DARWIN_CHECK:  162 fe   (*) fe35
(PID.TID 0000.0001) DARWIN_CHECK:  163 fe   (*) fe36
(PID.TID 0000.0001) DARWIN_CHECK:  164 fe   (*) fe37
(PID.TID 0000.0001) DARWIN_CHECK:  165 fe   (*) fe38
(PID.TID 0000.0001) DARWIN_CHECK:  166 fe   (*) fe39
(PID.TID 0000.0001) DARWIN_CHECK:  167 fe   (*) fe40
(PID.TID 0000.0001) DARWIN_CHECK:  168 fe   (*) fe41
(PID.TID 0000.0001) DARWIN_CHECK:  169 fe   (*) fe42
(PID.TID 0000.0001) DARWIN_CHECK:  170 fe   (*) fe43
(PID.TID 0000.0001) DARWIN_CHECK:  171 fe   (*) fe44
(PID.TID 0000.0001) DARWIN_CHECK:  172 fe   (*) fe45
(PID.TID 0000.0001) DARWIN_CHECK:  173 fe   (*) fe46
(PID.TID 0000.0001) DARWIN_CHECK:  174 fe   (*) fe47
(PID.TID 0000.0001) DARWIN_CHECK:  175 fe   (*) fe48
(PID.TID 0000.0001) DARWIN_CHECK:  176 fe   (*) fe49
(PID.TID 0000.0001) DARWIN_CHECK:  177 fe   (*) fe50
(PID.TID 0000.0001) DARWIN_CHECK:  178 fe   (*) fe51
(PID.TID 0000.0001) DARWIN_CHECK:  179 fe   (*) fe52
(PID.TID 0000.0001) DARWIN_CHECK:  180 fe   (*) fe53
(PID.TID 0000.0001) DARWIN_CHECK:  181 fe   (*) fe54
(PID.TID 0000.0001) DARWIN_CHECK:  182 fe   (*) fe55
(PID.TID 0000.0001) DARWIN_CHECK:  183 Chl  (1) Chl01
(PID.TID 0000.0001) DARWIN_CHECK:  184 Chl  (2) Chl02
(PID.TID 0000.0001) DARWIN_CHECK:  185 Chl  (3) Chl03
(PID.TID 0000.0001) DARWIN_CHECK:  186 Chl  (4) Chl04
(PID.TID 0000.0001) DARWIN_CHECK:  187 Chl  (5) Chl05
(PID.TID 0000.0001) DARWIN_CHECK:  188 Chl  (6) Chl06
(PID.TID 0000.0001) DARWIN_CHECK:  189 Chl  (7) Chl07
(PID.TID 0000.0001) DARWIN_CHECK:  190 Chl  (8) Chl08
(PID.TID 0000.0001) DARWIN_CHECK:  191 Chl  (9) Chl09
(PID.TID 0000.0001) DARWIN_CHECK:  192 Chl  (*) Chl10
(PID.TID 0000.0001) DARWIN_CHECK:  193 Chl  (*) Chl11
(PID.TID 0000.0001) DARWIN_CHECK:  194 Chl  (*) Chl12
(PID.TID 0000.0001) DARWIN_CHECK:  195 Chl  (*) Chl13
(PID.TID 0000.0001) DARWIN_CHECK:  196 Chl  (*) Chl14
(PID.TID 0000.0001) DARWIN_CHECK:  197 Chl  (*) Chl15
(PID.TID 0000.0001) DARWIN_CHECK:  198 Chl  (*) Chl16
(PID.TID 0000.0001) DARWIN_CHECK:  199 Chl  (*) Chl17
(PID.TID 0000.0001) DARWIN_CHECK:  200 Chl  (*) Chl18
(PID.TID 0000.0001) DARWIN_CHECK:  201 Chl  (*) Chl19
(PID.TID 0000.0001) DARWIN_CHECK:  202 Chl  (*) Chl20
(PID.TID 0000.0001) DARWIN_CHECK:  203 Chl  (*) Chl21
(PID.TID 0000.0001) DARWIN_CHECK:  204 Chl  (*) Chl22
(PID.TID 0000.0001) DARWIN_CHECK:  205 Chl  (*) Chl23
(PID.TID 0000.0001) DARWIN_CHECK:  206 Chl  (*) Chl24
(PID.TID 0000.0001) DARWIN_CHECK:  207 Chl  (*) Chl25
(PID.TID 0000.0001) GAD_CHECK: #define ALLOW_GENERIC_ADVDIFF
(PID.TID 0000.0001) // =======================================================
(PID.TID 0000.0001) // Check Model config. (CONFIG_CHECK):
(PID.TID 0000.0001) // CONFIG_CHECK : Normal End
(PID.TID 0000.0001) // =======================================================
(PID.TID 0000.0001) 
(PID.TID 0000.0001)  MDS_READ_META: opening file: pickup.0005644800.meta
(PID.TID 0000.0001)  nRecords = 123 ; filePrec =  64 ; fileIter =   5644800
(PID.TID 0000.0001)     nDims =   2 , dims:
(PID.TID 0000.0001)    1: 128   1 128
(PID.TID 0000.0001)    2:  64   1  64
(PID.TID 0000.0001)     nFlds =   0 , nFl3D =   0 , fields:
(PID.TID 0000.0001)   nTimRec =   0 , timeList:
(PID.TID 0000.0001)  MDS_READ_FIELD: opening global file: pickup.0005644800.data
(PID.TID 0000.0001)  MDS_READ_FIELD: opening global file: pickup.0005644800.data
(PID.TID 0000.0001)  MDS_READ_FIELD: opening global file: pickup.0005644800.data
(PID.TID 0000.0001)  MDS_READ_FIELD: opening global file: pickup.0005644800.data
(PID.TID 0000.0001)  MDS_READ_FIELD: opening global file: pickup.0005644800.data
(PID.TID 0000.0001)  MDS_READ_FIELD: opening global file: pickup.0005644800.data
(PID.TID 0000.0001)  MDS_READ_FIELD: opening global file: pickup.0005644800.data
(PID.TID 0000.0001)  MDS_READ_FIELD: opening global file: pickup.0005644800.data
(PID.TID 0000.0001)  MDS_READ_FIELD: opening global file: pickup.0005644800.data
(PID.TID 0000.0001) READ_MFLDS_CHECK: - normal end ; reset MFLDS file-name: pickup.0005644800
(PID.TID 0000.0001)  MDS_READ_FIELD: opening global file: ../../monod_global_128x64x15/input/input_ocmip/tren_taux.bin
(PID.TID 0000.0001)  MDS_READ_FIELD: opening global file: ../../monod_global_128x64x15/input/input_ocmip/tren_tauy.bin
(PID.TID 0000.0001)  MDS_READ_FIELD: opening global file: ../../monod_global_128x64x15/input/input_ocmip/shi_qnet.bin
(PID.TID 0000.0001)  MDS_READ_FIELD: opening global file: ../../monod_global_128x64x15/input/input_ocmip/shi_empmr_year.bin
(PID.TID 0000.0001)  MDS_READ_FIELD: opening global file: ../../monod_global_128x64x15/input/input_ocmip/lev_monthly_temp.bin
(PID.TID 0000.0001)  MDS_READ_FIELD: opening global file: ../../monod_global_128x64x15/input/input_ocmip/lev_monthly_salt.bin
(PID.TID 0000.0001)  write diagnostics summary to file ioUnit:      6
Iter.Nb:   5644800 ; Time(s):  2.4385536000000E+11
------------------------------------------------------------------------
2D/3D diagnostics: Number of lists:     1
------------------------------------------------------------------------
listId=    1 ; file name: darwin
 nFlds, nActive,       freq     &     phase        , nLev               
  207  |  207  |     10800.000000         0.000000 |  15
 levels:   1   2   3   4   5   6   7   8   9  10  11  12  13  14  15
 diag# | name   |   ipt  |  iMate | kLev|   count |   mate.C|           
   224 |TRAC01  |      1 |      0 |  15 |       0 |
   236 |TRAC02  |     16 |      0 |  15 |       0 |
   248 |TRAC03  |     31 |      0 |  15 |       0 |
   260 |TRAC04  |     46 |      0 |  15 |       0 |
   272 |TRAC05  |     61 |      0 |  15 |       0 |
   284 |TRAC06  |     76 |      0 |  15 |       0 |
   296 |TRAC07  |     91 |      0 |  15 |       0 |
   308 |TRAC08  |    106 |      0 |  15 |       0 |
   320 |TRAC09  |    121 |      0 |  15 |       0 |
   332 |TRAC10  |    136 |      0 |  15 |       0 |
   344 |TRAC11  |    151 |      0 |  15 |       0 |
   356 |TRAC12  |    166 |      0 |  15 |       0 |
   368 |TRAC13  |    181 |      0 |  15 |       0 |
   380 |TRAC14  |    196 |      0 |  15 |       0 |
   392 |TRAC15  |    211 |      0 |  15 |       0 |
   404 |TRAC16  |    226 |      0 |  15 |       0 |
   416 |TRAC17  |    241 |      0 |  15 |       0 |
   428 |TRAC18  |    256 |      0 |  15 |       0 |
   440 |TRAC19  |    271 |      0 |  15 |       0 |
   452 |TRAC20  |    286 |      0 |  15 |       0 |
   464 |TRAC21  |    301 |      0 |  15 |       0 |
   476 |TRAC22  |    316 |      0 |  15 |       0 |
   488 |TRAC23  |    331 |      0 |  15 |       0 |
   500 |TRAC24  |    346 |      0 |  15 |       0 |
   512 |TRAC25  |    361 |      0 |  15 |       0 |
   524 |TRAC26  |    376 |      0 |  15 |       0 |
   536 |TRAC27  |    391 |      0 |  15 |       0 |
   548 |TRAC28  |    406 |      0 |  15 |       0 |
   560 |TRAC29  |    421 |      0 |  15 |       0 |
   572 |TRAC30  |    436 |      0 |  15 |       0 |
   584 |TRAC31  |    451 |      0 |  15 |       0 |
   596 |TRAC32  |    466 |      0 |  15 |       0 |
   608 |TRAC33  |    481 |      0 |  15 |       0 |
   620 |TRAC34  |    496 |      0 |  15 |       0 |
   632 |TRAC35  |    511 |      0 |  15 |       0 |
   644 |TRAC36  |    526 |      0 |  15 |       0 |
   656 |TRAC37  |    541 |      0 |  15 |       0 |
   668 |TRAC38  |    556 |      0 |  15 |       0 |
   680 |TRAC39  |    571 |      0 |  15 |       0 |
   692 |TRAC40  |    586 |      0 |  15 |       0 |
   704 |TRAC41  |    601 |      0 |  15 |       0 |
   716 |TRAC42  |    616 |      0 |  15 |       0 |
   728 |TRAC43  |    631 |      0 |  15 |       0 |
   740 |TRAC44  |    646 |      0 |  15 |       0 |
   752 |TRAC45  |    661 |      0 |  15 |       0 |
   764 |TRAC46  |    676 |      0 |  15 |       0 |
   776 |TRAC47  |    691 |      0 |  15 |       0 |
   788 |TRAC48  |    706 |      0 |  15 |       0 |
   800 |TRAC49  |    721 |      0 |  15 |       0 |
   812 |TRAC50  |    736 |      0 |  15 |       0 |
   824 |TRAC51  |    751 |      0 |  15 |       0 |
   836 |TRAC52  |    766 |      0 |  15 |       0 |
   848 |TRAC53  |    781 |      0 |  15 |       0 |
   860 |TRAC54  |    796 |      0 |  15 |       0 |
   872 |TRAC55  |    811 |      0 |  15 |       0 |
   884 |TRAC56  |    826 |      0 |  15 |       0 |
   896 |TRAC57  |    841 |      0 |  15 |       0 |
   908 |TRAC58  |    856 |      0 |  15 |       0 |
   920 |TRAC59  |    871 |      0 |  15 |       0 |
   932 |TRAC60  |    886 |      0 |  15 |       0 |
   944 |TRAC61  |    901 |      0 |  15 |       0 |
   956 |TRAC62  |    916 |      0 |  15 |       0 |
   968 |TRAC63  |    931 |      0 |  15 |       0 |
   980 |TRAC64  |    946 |      0 |  15 |       0 |
   992 |TRAC65  |    961 |      0 |  15 |       0 |
  1004 |TRAC66  |    976 |      0 |  15 |       0 |
  1016 |TRAC67  |    991 |      0 |  15 |       0 |
  1028 |TRAC68  |   1006 |      0 |  15 |       0 |
  1040 |TRAC69  |   1021 |      0 |  15 |       0 |
  1052 |TRAC70  |   1036 |      0 |  15 |       0 |
  1064 |TRAC71  |   1051 |      0 |  15 |       0 |
  1076 |TRAC72  |   1066 |      0 |  15 |       0 |
  1088 |TRAC73  |   1081 |      0 |  15 |       0 |
  1100 |TRAC74  |   1096 |      0 |  15 |       0 |
  1112 |TRAC75  |   1111 |      0 |  15 |       0 |
  1124 |TRAC76  |   1126 |      0 |  15 |       0 |
  1136 |TRAC77  |   1141 |      0 |  15 |       0 |
  1148 |TRAC78  |   1156 |      0 |  15 |       0 |
  1160 |TRAC79  |   1171 |      0 |  15 |       0 |
  1172 |TRAC80  |   1186 |      0 |  15 |       0 |
  1184 |TRAC81  |   1201 |      0 |  15 |       0 |
  1196 |TRAC82  |   1216 |      0 |  15 |       0 |
  1208 |TRAC83  |   1231 |      0 |  15 |       0 |
  1220 |TRAC84  |   1246 |      0 |  15 |       0 |
  1232 |TRAC85  |   1261 |      0 |  15 |       0 |
  1244 |TRAC86  |   1276 |      0 |  15 |       0 |
  1256 |TRAC87  |   1291 |      0 |  15 |       0 |
  1268 |TRAC88  |   1306 |      0 |  15 |       0 |
  1280 |TRAC89  |   1321 |      0 |  15 |       0 |
  1292 |TRAC90  |   1336 |      0 |  15 |       0 |
  1304 |TRAC91  |   1351 |      0 |  15 |       0 |
  1316 |TRAC92  |   1366 |      0 |  15 |       0 |
  1328 |TRAC93  |   1381 |      0 |  15 |       0 |
  1340 |TRAC94  |   1396 |      0 |  15 |       0 |
  1352 |TRAC95  |   1411 |      0 |  15 |       0 |
  1364 |TRAC96  |   1426 |      0 |  15 |       0 |
  1376 |TRAC97  |   1441 |      0 |  15 |       0 |
  1388 |TRAC98  |   1456 |      0 |  15 |       0 |
  1400 |TRAC99  |   1471 |      0 |  15 |       0 |
  1412 |TRAC0a  |   1486 |      0 |  15 |       0 |
  1424 |TRAC0b  |   1501 |      0 |  15 |       0 |
  1436 |TRAC0c  |   1516 |      0 |  15 |       0 |
  1448 |TRAC0d  |   1531 |      0 |  15 |       0 |
  1460 |TRAC0e  |   1546 |      0 |  15 |       0 |
  1472 |TRAC0f  |   1561 |      0 |  15 |       0 |
  1484 |TRAC0g  |   1576 |      0 |  15 |       0 |
  1496 |TRAC0h  |   1591 |      0 |  15 |       0 |
  1508 |TRAC0i  |   1606 |      0 |  15 |       0 |
  1520 |TRAC0j  |   1621 |      0 |  15 |       0 |
  1532 |TRAC0k  |   1636 |      0 |  15 |       0 |
  1544 |TRAC0l  |   1651 |      0 |  15 |       0 |
  1556 |TRAC0m  |   1666 |      0 |  15 |       0 |
  1568 |TRAC0n  |   1681 |      0 |  15 |       0 |
  1580 |TRAC0o  |   1696 |      0 |  15 |       0 |
  1592 |TRAC0p  |   1711 |      0 |  15 |       0 |
  1604 |TRAC0q  |   1726 |      0 |  15 |       0 |
  1616 |TRAC0r  |   1741 |      0 |  15 |       0 |
  1628 |TRAC0s  |   1756 |      0 |  15 |       0 |
  1640 |TRAC0t  |   1771 |      0 |  15 |       0 |
  1652 |TRAC0u  |   1786 |      0 |  15 |       0 |
  1664 |TRAC0v  |   1801 |      0 |  15 |       0 |
  1676 |TRAC0w  |   1816 |      0 |  15 |       0 |
  1688 |TRAC0x  |   1831 |      0 |  15 |       0 |
  1700 |TRAC0y  |   1846 |      0 |  15 |       0 |
  1712 |TRAC0z  |   1861 |      0 |  15 |       0 |
  1724 |TRAC0A  |   1876 |      0 |  15 |       0 |
  1736 |TRAC0B  |   1891 |      0 |  15 |       0 |
  1748 |TRAC0C  |   1906 |      0 |  15 |       0 |
  1760 |TRAC0D  |   1921 |      0 |  15 |       0 |
  1772 |TRAC0E  |   1936 |      0 |  15 |       0 |
  1784 |TRAC0F  |   1951 |      0 |  15 |       0 |
  1796 |TRAC0G  |   1966 |      0 |  15 |       0 |
  1808 |TRAC0H  |   1981 |      0 |  15 |       0 |
  1820 |TRAC0I  |   1996 |      0 |  15 |       0 |
  1832 |TRAC0J  |   2011 |      0 |  15 |       0 |
  1844 |TRAC0K  |   2026 |      0 |  15 |       0 |
  1856 |TRAC0L  |   2041 |      0 |  15 |       0 |
  1868 |TRAC0M  |   2056 |      0 |  15 |       0 |
  1880 |TRAC0N  |   2071 |      0 |  15 |       0 |
  1892 |TRAC0O  |   2086 |      0 |  15 |       0 |
  1904 |TRAC0P  |   2101 |      0 |  15 |       0 |
  1916 |TRAC0Q  |   2116 |      0 |  15 |       0 |
  1928 |TRAC0R  |   2131 |      0 |  15 |       0 |
  1940 |TRAC0S  |   2146 |      0 |  15 |       0 |
  1952 |TRAC0T  |   2161 |      0 |  15 |       0 |
  1964 |TRAC0U  |   2176 |      0 |  15 |       0 |
  1976 |TRAC0V  |   2191 |      0 |  15 |       0 |
  1988 |TRAC0W  |   2206 |      0 |  15 |       0 |
  2000 |TRAC0X  |   2221 |      0 |  15 |       0 |
  2012 |TRAC0Y  |   2236 |      0 |  15 |       0 |
  2024 |TRAC0Z  |   2251 |      0 |  15 |       0 |
  2036 |TRAC1a  |   2266 |      0 |  15 |       0 |
  2048 |TRAC1b  |   2281 |      0 |  15 |       0 |
  2060 |TRAC1c  |   2296 |      0 |  15 |       0 |
  2072 |TRAC1d  |   2311 |      0 |  15 |       0 |
  2084 |TRAC1e  |   2326 |      0 |  15 |       0 |
  2096 |TRAC1f  |   2341 |      0 |  15 |       0 |
  2108 |TRAC1g  |   2356 |      0 |  15 |       0 |
  2120 |TRAC1h  |   2371 |      0 |  15 |       0 |
  2132 |TRAC1i  |   2386 |      0 |  15 |       0 |
  2144 |TRAC1j  |   2401 |      0 |  15 |       0 |
  2156 |TRAC1k  |   2416 |      0 |  15 |       0 |
  2168 |TRAC1l  |   2431 |      0 |  15 |       0 |
  2180 |TRAC1m  |   2446 |      0 |  15 |       0 |
  2192 |TRAC1n  |   2461 |      0 |  15 |       0 |
  2204 |TRAC1o  |   2476 |      0 |  15 |       0 |
  2216 |TRAC1p  |   2491 |      0 |  15 |       0 |
  2228 |TRAC1q  |   2506 |      0 |  15 |       0 |
  2240 |TRAC1r  |   2521 |      0 |  15 |       0 |
  2252 |TRAC1s  |   2536 |      0 |  15 |       0 |
  2264 |TRAC1t  |   2551 |      0 |  15 |       0 |
  2276 |TRAC1u  |   2566 |      0 |  15 |       0 |
  2288 |TRAC1v  |   2581 |      0 |  15 |       0 |
  2300 |TRAC1w  |   2596 |      0 |  15 |       0 |
  2312 |TRAC1x  |   2611 |      0 |  15 |       0 |
  2324 |TRAC1y  |   2626 |      0 |  15 |       0 |
  2336 |TRAC1z  |   2641 |      0 |  15 |       0 |
  2348 |TRAC1A  |   2656 |      0 |  15 |       0 |
  2360 |TRAC1B  |   2671 |      0 |  15 |       0 |
  2372 |TRAC1C  |   2686 |      0 |  15 |       0 |
  2384 |TRAC1D  |   2701 |      0 |  15 |       0 |
  2396 |TRAC1E  |   2716 |      0 |  15 |       0 |
  2408 |TRAC1F  |   2731 |      0 |  15 |       0 |
  2420 |TRAC1G  |   2746 |      0 |  15 |       0 |
  2432 |TRAC1H  |   2761 |      0 |  15 |       0 |
  2444 |TRAC1I  |   2776 |      0 |  15 |       0 |
  2456 |TRAC1J  |   2791 |      0 |  15 |       0 |
  2468 |TRAC1K  |   2806 |      0 |  15 |       0 |
  2480 |TRAC1L  |   2821 |      0 |  15 |       0 |
  2492 |TRAC1M  |   2836 |      0 |  15 |       0 |
  2504 |TRAC1N  |   2851 |      0 |  15 |       0 |
  2516 |TRAC1O  |   2866 |      0 |  15 |       0 |
  2528 |TRAC1P  |   2881 |      0 |  15 |       0 |
  2540 |TRAC1Q  |   2896 |      0 |  15 |       0 |
  2552 |TRAC1R  |   2911 |      0 |  15 |       0 |
  2564 |TRAC1S  |   2926 |      0 |  15 |       0 |
  2576 |TRAC1T  |   2941 |      0 |  15 |       0 |
  2588 |TRAC1U  |   2956 |      0 |  15 |       0 |
  2600 |TRAC1V  |   2971 |      0 |  15 |       0 |
  2612 |TRAC1W  |   2986 |      0 |  15 |       0 |
  2624 |TRAC1X  |   3001 |      0 |  15 |       0 |
  2636 |TRAC1Y  |   3016 |      0 |  15 |       0 |
  2648 |TRAC1Z  |   3031 |      0 |  15 |       0 |
  2660 |TRAC2a  |   3046 |      0 |  15 |       0 |
  2672 |TRAC2b  |   3061 |      0 |  15 |       0 |
  2684 |TRAC2c  |   3076 |      0 |  15 |       0 |
  2696 |TRAC2d  |   3091 |      0 |  15 |       0 |
------------------------------------------------------------------------
Global & Regional Statistics diagnostics: Number of lists:     0
------------------------------------------------------------------------
(PID.TID 0000.0001)  MDS_READ_FIELD: opening global file: pickup_cd.0005644800.data
(PID.TID 0000.0001)  MDS_READ_FIELD: opening global file: pickup_cd.0005644800.data
(PID.TID 0000.0001)  MDS_READ_FIELD: opening global file: pickup_cd.0005644800.data
(PID.TID 0000.0001)  MDS_READ_FIELD: opening global file: pickup_cd.0005644800.data
(PID.TID 0000.0001)  MDS_READ_FIELD: opening global file: pickup_cd.0005644800.data
(PID.TID 0000.0001)  MDS_READ_FIELD: opening global file: ../input/input/dic_mmolm3_jan2004.bin
(PID.TID 0000.0001)  MDS_READ_FIELD: opening global file: ../input/input/NH4_run1_13_10y.bin
(PID.TID 0000.0001)  MDS_READ_FIELD: opening global file: ../input/input/NO2_run1_13_10y.bin
(PID.TID 0000.0001)  MDS_READ_FIELD: opening global file: ../input/input/lev01_nitrate_ann-3d.bin
(PID.TID 0000.0001)  MDS_READ_FIELD: opening global file: ../input/input/payal_fet_ann-3d.bin
(PID.TID 0000.0001)  MDS_READ_FIELD: opening global file: ../input/input/DOC_run1_13_10y.bin
(PID.TID 0000.0001)  MDS_READ_FIELD: opening global file: ../input/input/DON_run1_13_10y.bin
(PID.TID 0000.0001)  MDS_READ_FIELD: opening global file: ../input/input/DOFe_run1_13_10y.bin
(PID.TID 0000.0001)  MDS_READ_FIELD: opening global file: ../input/input/POC_run1_13_10y.bin
(PID.TID 0000.0001)  MDS_READ_FIELD: opening global file: ../input/input/PON_run1_13_10y.bin
(PID.TID 0000.0001)  MDS_READ_FIELD: opening global file: ../input/input/POFe_run1_13_10y.bin
(PID.TID 0000.0001)  MDS_READ_FIELD: opening global file: ../input/input/C_bio_even.bin
(PID.TID 0000.0001)  MDS_READ_FIELD: opening global file: ../input/input/C_bio_even.bin
(PID.TID 0000.0001)  MDS_READ_FIELD: opening global file: ../input/input/C_bio_even.bin
(PID.TID 0000.0001)  MDS_READ_FIELD: opening global file: ../input/input/C_bio_even.bin
(PID.TID 0000.0001)  MDS_READ_FIELD: opening global file: ../input/input/C_bio_even.bin
(PID.TID 0000.0001)  MDS_READ_FIELD: opening global file: ../input/input/C_bio_even.bin
(PID.TID 0000.0001)  MDS_READ_FIELD: opening global file: ../input/input/C_bio_even.bin
(PID.TID 0000.0001)  MDS_READ_FIELD: opening global file: ../input/input/C_bio_even.bin
(PID.TID 0000.0001)  MDS_READ_FIELD: opening global file: ../input/input/C_bio_even.bin
(PID.TID 0000.0001)  MDS_READ_FIELD: opening global file: ../input/input/C_bio_even.bin
(PID.TID 0000.0001)  MDS_READ_FIELD: opening global file: ../input/input/C_bio_even.bin
(PID.TID 0000.0001)  MDS_READ_FIELD: opening global file: ../input/input/C_bio_even.bin
(PID.TID 0000.0001)  MDS_READ_FIELD: opening global file: ../input/input/C_bio_even.bin
(PID.TID 0000.0001)  MDS_READ_FIELD: opening global file: ../input/input/C_bio_even.bin
(PID.TID 0000.0001)  MDS_READ_FIELD: opening global file: ../input/input/C_bio_even.bin
(PID.TID 0000.0001)  MDS_READ_FIELD: opening global file: ../input/input/C_bio_even.bin
(PID.TID 0000.0001)  MDS_READ_FIELD: opening global file: ../input/input/C_bio_even.bin
(PID.TID 0000.0001)  MDS_READ_FIELD: opening global file: ../input/input/C_bio_even.bin
(PID.TID 0000.0001)  MDS_READ_FIELD: opening global file: ../input/input/C_bio_even.bin
(PID.TID 0000.0001)  MDS_READ_FIELD: opening global file: ../input/input/C_bio_even.bin
(PID.TID 0000.0001)  MDS_READ_FIELD: opening global file: ../input/input/C_bio_even.bin
(PID.TID 0000.0001)  MDS_READ_FIELD: opening global file: ../input/input/C_bio_even.bin
(PID.TID 0000.0001)  MDS_READ_FIELD: opening global file: ../input/input/C_bio_even.bin
(PID.TID 0000.0001)  MDS_READ_FIELD: opening global file: ../input/input/C_bio_even.bin
(PID.TID 0000.0001)  MDS_READ_FIELD: opening global file: ../input/input/C_bio_even.bin
(PID.TID 0000.0001)  MDS_READ_FIELD: opening global file: ../input/input/C_bio_even.bin
(PID.TID 0000.0001)  MDS_READ_FIELD: opening global file: ../input/input/C_bio_even.bin
(PID.TID 0000.0001)  MDS_READ_FIELD: opening global file: ../input/input/C_bio_even.bin
(PID.TID 0000.0001)  MDS_READ_FIELD: opening global file: ../input/input/C_bio_even.bin
(PID.TID 0000.0001)  MDS_READ_FIELD: opening global file: ../input/input/C_bio_even.bin
(PID.TID 0000.0001)  MDS_READ_FIELD: opening global file: ../input/input/C_bio_even.bin
(PID.TID 0000.0001)  MDS_READ_FIELD: opening global file: ../input/input/C_bio_even.bin
(PID.TID 0000.0001)  MDS_READ_FIELD: opening global file: ../input/input/C_bio_even.bin
(PID.TID 0000.0001)  MDS_READ_FIELD: opening global file: ../input/input/C_bio_even.bin
(PID.TID 0000.0001)  MDS_READ_FIELD: opening global file: ../input/input/C_bio_even.bin
(PID.TID 0000.0001)  MDS_READ_FIELD: opening global file: ../input/input/C_bio_even.bin
(PID.TID 0000.0001)  MDS_READ_FIELD: opening global file: ../input/input/C_bio_even.bin
(PID.TID 0000.0001)  MDS_READ_FIELD: opening global file: ../input/input/C_bio_even.bin
(PID.TID 0000.0001)  MDS_READ_FIELD: opening global file: ../input/input/C_bio_even.bin
(PID.TID 0000.0001)  MDS_READ_FIELD: opening global file: ../input/input/C_bio_even.bin
(PID.TID 0000.0001)  MDS_READ_FIELD: opening global file: ../input/input/C_bio_even.bin
(PID.TID 0000.0001)  MDS_READ_FIELD: opening global file: ../input/input/C_bio_even.bin
(PID.TID 0000.0001)  MDS_READ_FIELD: opening global file: ../input/input/C_bio_even.bin
(PID.TID 0000.0001)  MDS_READ_FIELD: opening global file: ../input/input/C_bio_even.bin
(PID.TID 0000.0001)  MDS_READ_FIELD: opening global file: ../input/input/C_bio_even.bin
(PID.TID 0000.0001)  MDS_READ_FIELD: opening global file: ../input/input/C_bio_even.bin
(PID.TID 0000.0001)  MDS_READ_FIELD: opening global file: ../input/input/C_bio_even.bin
(PID.TID 0000.0001)  MDS_READ_FIELD: opening global file: ../input/input/C_bio_even.bin
(PID.TID 0000.0001)  MDS_READ_FIELD: opening global file: ../input/input/C_bio_even.bin
(PID.TID 0000.0001)  MDS_READ_FIELD: opening global file: ../input/input/C_bio_even.bin
(PID.TID 0000.0001)  MDS_READ_FIELD: opening global file: ../input/input/C_bio_even.bin
(PID.TID 0000.0001)  MDS_READ_FIELD: opening global file: ../input/input/C_bio_even.bin
(PID.TID 0000.0001)  MDS_READ_FIELD: opening global file: ../input/input/C_bio_even.bin
(PID.TID 0000.0001)  MDS_READ_FIELD: opening global file: ../input/input/C_bio_even.bin
(PID.TID 0000.0001)  MDS_READ_FIELD: opening global file: ../input/input/C_bio_even.bin
(PID.TID 0000.0001)  MDS_READ_FIELD: opening global file: ../input/input/N_bio_even.bin
(PID.TID 0000.0001)  MDS_READ_FIELD: opening global file: ../input/input/N_bio_even.bin
(PID.TID 0000.0001)  MDS_READ_FIELD: opening global file: ../input/input/N_bio_even.bin
(PID.TID 0000.0001)  MDS_READ_FIELD: opening global file: ../input/input/N_bio_even.bin
(PID.TID 0000.0001)  MDS_READ_FIELD: opening global file: ../input/input/N_bio_even.bin
(PID.TID 0000.0001)  MDS_READ_FIELD: opening global file: ../input/input/N_bio_even.bin
(PID.TID 0000.0001)  MDS_READ_FIELD: opening global file: ../input/input/N_bio_even.bin
(PID.TID 0000.0001)  MDS_READ_FIELD: opening global file: ../input/input/N_bio_even.bin
(PID.TID 0000.0001)  MDS_READ_FIELD: opening global file: ../input/input/N_bio_even.bin
(PID.TID 0000.0001)  MDS_READ_FIELD: opening global file: ../input/input/N_bio_even.bin
(PID.TID 0000.0001)  MDS_READ_FIELD: opening global file: ../input/input/N_bio_even.bin
(PID.TID 0000.0001)  MDS_READ_FIELD: opening global file: ../input/input/N_bio_even.bin
(PID.TID 0000.0001)  MDS_READ_FIELD: opening global file: ../input/input/N_bio_even.bin
(PID.TID 0000.0001)  MDS_READ_FIELD: opening global file: ../input/input/N_bio_even.bin
(PID.TID 0000.0001)  MDS_READ_FIELD: opening global file: ../input/input/N_bio_even.bin
(PID.TID 0000.0001)  MDS_READ_FIELD: opening global file: ../input/input/N_bio_even.bin
(PID.TID 0000.0001)  MDS_READ_FIELD: opening global file: ../input/input/N_bio_even.bin
(PID.TID 0000.0001)  MDS_READ_FIELD: opening global file: ../input/input/N_bio_even.bin
(PID.TID 0000.0001)  MDS_READ_FIELD: opening global file: ../input/input/N_bio_even.bin
(PID.TID 0000.0001)  MDS_READ_FIELD: opening global file: ../input/input/N_bio_even.bin
(PID.TID 0000.0001)  MDS_READ_FIELD: opening global file: ../input/input/N_bio_even.bin
(PID.TID 0000.0001)  MDS_READ_FIELD: opening global file: ../input/input/N_bio_even.bin
(PID.TID 0000.0001)  MDS_READ_FIELD: opening global file: ../input/input/N_bio_even.bin
(PID.TID 0000.0001)  MDS_READ_FIELD: opening global file: ../input/input/N_bio_even.bin
(PID.TID 0000.0001)  MDS_READ_FIELD: opening global file: ../input/input/N_bio_even.bin
(PID.TID 0000.0001)  MDS_READ_FIELD: opening global file: ../input/input/N_bio_even.bin
(PID.TID 0000.0001)  MDS_READ_FIELD: opening global file: ../input/input/N_bio_even.bin
(PID.TID 0000.0001)  MDS_READ_FIELD: opening global file: ../input/input/N_bio_even.bin
(PID.TID 0000.0001)  MDS_READ_FIELD: opening global file: ../input/input/N_bio_even.bin
(PID.TID 0000.0001)  MDS_READ_FIELD: opening global file: ../input/input/N_bio_even.bin
(PID.TID 0000.0001)  MDS_READ_FIELD: opening global file: ../input/input/N_bio_even.bin
(PID.TID 0000.0001)  MDS_READ_FIELD: opening global file: ../input/input/N_bio_even.bin
(PID.TID 0000.0001)  MDS_READ_FIELD: opening global file: ../input/input/N_bio_even.bin
(PID.TID 0000.0001)  MDS_READ_FIELD: opening global file: ../input/input/N_bio_even.bin
(PID.TID 0000.0001)  MDS_READ_FIELD: opening global file: ../input/input/N_bio_even.bin
(PID.TID 0000.0001)  MDS_READ_FIELD: opening global file: ../input/input/N_bio_even.bin
(PID.TID 0000.0001)  MDS_READ_FIELD: opening global file: ../input/input/N_bio_even.bin
(PID.TID 0000.0001)  MDS_READ_FIELD: opening global file: ../input/input/N_bio_even.bin
(PID.TID 0000.0001)  MDS_READ_FIELD: opening global file: ../input/input/N_bio_even.bin
(PID.TID 0000.0001)  MDS_READ_FIELD: opening global file: ../input/input/N_bio_even.bin
(PID.TID 0000.0001)  MDS_READ_FIELD: opening global file: ../input/input/N_bio_even.bin
(PID.TID 0000.0001)  MDS_READ_FIELD: opening global file: ../input/input/N_bio_even.bin
(PID.TID 0000.0001)  MDS_READ_FIELD: opening global file: ../input/input/N_bio_even.bin
(PID.TID 0000.0001)  MDS_READ_FIELD: opening global file: ../input/input/N_bio_even.bin
(PID.TID 0000.0001)  MDS_READ_FIELD: opening global file: ../input/input/N_bio_even.bin
(PID.TID 0000.0001)  MDS_READ_FIELD: opening global file: ../input/input/N_bio_even.bin
(PID.TID 0000.0001)  MDS_READ_FIELD: opening global file: ../input/input/N_bio_even.bin
(PID.TID 0000.0001)  MDS_READ_FIELD: opening global file: ../input/input/N_bio_even.bin
(PID.TID 0000.0001)  MDS_READ_FIELD: opening global file: ../input/input/N_bio_even.bin
(PID.TID 0000.0001)  MDS_READ_FIELD: opening global file: ../input/input/N_bio_even.bin
(PID.TID 0000.0001)  MDS_READ_FIELD: opening global file: ../input/input/N_bio_even.bin
(PID.TID 0000.0001)  MDS_READ_FIELD: opening global file: ../input/input/N_bio_even.bin
(PID.TID 0000.0001)  MDS_READ_FIELD: opening global file: ../input/input/N_bio_even.bin
(PID.TID 0000.0001)  MDS_READ_FIELD: opening global file: ../input/input/N_bio_even.bin
(PID.TID 0000.0001)  MDS_READ_FIELD: opening global file: ../input/input/N_bio_even.bin
(PID.TID 0000.0001)  MDS_READ_FIELD: opening global file: ../input/input/Fe_bio_even.bin
(PID.TID 0000.0001)  MDS_READ_FIELD: opening global file: ../input/input/Fe_bio_even.bin
(PID.TID 0000.0001)  MDS_READ_FIELD: opening global file: ../input/input/Fe_bio_even.bin
(PID.TID 0000.0001)  MDS_READ_FIELD: opening global file: ../input/input/Fe_bio_even.bin
(PID.TID 0000.0001)  MDS_READ_FIELD: opening global file: ../input/input/Fe_bio_even.bin
(PID.TID 0000.0001)  MDS_READ_FIELD: opening global file: ../input/input/Fe_bio_even.bin
(PID.TID 0000.0001)  MDS_READ_FIELD: opening global file: ../input/input/Fe_bio_even.bin
(PID.TID 0000.0001)  MDS_READ_FIELD: opening global file: ../input/input/Fe_bio_even.bin
(PID.TID 0000.0001)  MDS_READ_FIELD: opening global file: ../input/input/Fe_bio_even.bin
(PID.TID 0000.0001)  MDS_READ_FIELD: opening global file: ../input/input/Fe_bio_even.bin
(PID.TID 0000.0001)  MDS_READ_FIELD: opening global file: ../input/input/Fe_bio_even.bin
(PID.TID 0000.0001)  MDS_READ_FIELD: opening global file: ../input/input/Fe_bio_even.bin
(PID.TID 0000.0001)  MDS_READ_FIELD: opening global file: ../input/input/Fe_bio_even.bin
(PID.TID 0000.0001)  MDS_READ_FIELD: opening global file: ../input/input/Fe_bio_even.bin
(PID.TID 0000.0001)  MDS_READ_FIELD: opening global file: ../input/input/Fe_bio_even.bin
(PID.TID 0000.0001)  MDS_READ_FIELD: opening global file: ../input/input/Fe_bio_even.bin
(PID.TID 0000.0001)  MDS_READ_FIELD: opening global file: ../input/input/Fe_bio_even.bin
(PID.TID 0000.0001)  MDS_READ_FIELD: opening global file: ../input/input/Fe_bio_even.bin
(PID.TID 0000.0001)  MDS_READ_FIELD: opening global file: ../input/input/Fe_bio_even.bin
(PID.TID 0000.0001)  MDS_READ_FIELD: opening global file: ../input/input/Fe_bio_even.bin
(PID.TID 0000.0001)  MDS_READ_FIELD: opening global file: ../input/input/Fe_bio_even.bin
(PID.TID 0000.0001)  MDS_READ_FIELD: opening global file: ../input/input/Fe_bio_even.bin
(PID.TID 0000.0001)  MDS_READ_FIELD: opening global file: ../input/input/Fe_bio_even.bin
(PID.TID 0000.0001)  MDS_READ_FIELD: opening global file: ../input/input/Fe_bio_even.bin
(PID.TID 0000.0001)  MDS_READ_FIELD: opening global file: ../input/input/Fe_bio_even.bin
(PID.TID 0000.0001)  MDS_READ_FIELD: opening global file: ../input/input/Fe_bio_even.bin
(PID.TID 0000.0001)  MDS_READ_FIELD: opening global file: ../input/input/Fe_bio_even.bin
(PID.TID 0000.0001)  MDS_READ_FIELD: opening global file: ../input/input/Fe_bio_even.bin
(PID.TID 0000.0001)  MDS_READ_FIELD: opening global file: ../input/input/Fe_bio_even.bin
(PID.TID 0000.0001)  MDS_READ_FIELD: opening global file: ../input/input/Fe_bio_even.bin
(PID.TID 0000.0001)  MDS_READ_FIELD: opening global file: ../input/input/Fe_bio_even.bin
(PID.TID 0000.0001)  MDS_READ_FIELD: opening global file: ../input/input/Fe_bio_even.bin
(PID.TID 0000.0001)  MDS_READ_FIELD: opening global file: ../input/input/Fe_bio_even.bin
(PID.TID 0000.0001)  MDS_READ_FIELD: opening global file: ../input/input/Fe_bio_even.bin
(PID.TID 0000.0001)  MDS_READ_FIELD: opening global file: ../input/input/Fe_bio_even.bin
(PID.TID 0000.0001)  MDS_READ_FIELD: opening global file: ../input/input/Fe_bio_even.bin
(PID.TID 0000.0001)  MDS_READ_FIELD: opening global file: ../input/input/Fe_bio_even.bin
(PID.TID 0000.0001)  MDS_READ_FIELD: opening global file: ../input/input/Fe_bio_even.bin
(PID.TID 0000.0001)  MDS_READ_FIELD: opening global file: ../input/input/Fe_bio_even.bin
(PID.TID 0000.0001)  MDS_READ_FIELD: opening global file: ../input/input/Fe_bio_even.bin
(PID.TID 0000.0001)  MDS_READ_FIELD: opening global file: ../input/input/Fe_bio_even.bin
(PID.TID 0000.0001)  MDS_READ_FIELD: opening global file: ../input/input/Fe_bio_even.bin
(PID.TID 0000.0001)  MDS_READ_FIELD: opening global file: ../input/input/Fe_bio_even.bin
(PID.TID 0000.0001)  MDS_READ_FIELD: opening global file: ../input/input/Fe_bio_even.bin
(PID.TID 0000.0001)  MDS_READ_FIELD: opening global file: ../input/input/Fe_bio_even.bin
(PID.TID 0000.0001)  MDS_READ_FIELD: opening global file: ../input/input/Fe_bio_even.bin
(PID.TID 0000.0001)  MDS_READ_FIELD: opening global file: ../input/input/Fe_bio_even.bin
(PID.TID 0000.0001)  MDS_READ_FIELD: opening global file: ../input/input/Fe_bio_even.bin
(PID.TID 0000.0001)  MDS_READ_FIELD: opening global file: ../input/input/Fe_bio_even.bin
(PID.TID 0000.0001)  MDS_READ_FIELD: opening global file: ../input/input/Fe_bio_even.bin
(PID.TID 0000.0001)  MDS_READ_FIELD: opening global file: ../input/input/Fe_bio_even.bin
(PID.TID 0000.0001)  MDS_READ_FIELD: opening global file: ../input/input/Fe_bio_even.bin
(PID.TID 0000.0001)  MDS_READ_FIELD: opening global file: ../input/input/Fe_bio_even.bin
(PID.TID 0000.0001)  MDS_READ_FIELD: opening global file: ../input/input/Fe_bio_even.bin
(PID.TID 0000.0001)  MDS_READ_FIELD: opening global file: ../input/input/Fe_bio_even.bin
(PID.TID 0000.0001)  MDS_READ_FIELD: opening global file: ../input/input/Chl_bio_even.bin
(PID.TID 0000.0001)  MDS_READ_FIELD: opening global file: ../input/input/Chl_bio_even.bin
(PID.TID 0000.0001)  MDS_READ_FIELD: opening global file: ../input/input/Chl_bio_even.bin
(PID.TID 0000.0001)  MDS_READ_FIELD: opening global file: ../input/input/Chl_bio_even.bin
(PID.TID 0000.0001)  MDS_READ_FIELD: opening global file: ../input/input/Chl_bio_even.bin
(PID.TID 0000.0001)  MDS_READ_FIELD: opening global file: ../input/input/Chl_bio_even.bin
(PID.TID 0000.0001)  MDS_READ_FIELD: opening global file: ../input/input/Chl_bio_even.bin
(PID.TID 0000.0001)  MDS_READ_FIELD: opening global file: ../input/input/Chl_bio_even.bin
(PID.TID 0000.0001)  MDS_READ_FIELD: opening global file: ../input/input/Chl_bio_even.bin
(PID.TID 0000.0001)  MDS_READ_FIELD: opening global file: ../input/input/Chl_bio_even.bin
(PID.TID 0000.0001)  MDS_READ_FIELD: opening global file: ../input/input/Chl_bio_even.bin
(PID.TID 0000.0001)  MDS_READ_FIELD: opening global file: ../input/input/Chl_bio_even.bin
(PID.TID 0000.0001)  MDS_READ_FIELD: opening global file: ../input/input/Chl_bio_even.bin
(PID.TID 0000.0001)  MDS_READ_FIELD: opening global file: ../input/input/Chl_bio_even.bin
(PID.TID 0000.0001)  MDS_READ_FIELD: opening global file: ../input/input/Chl_bio_even.bin
(PID.TID 0000.0001)  MDS_READ_FIELD: opening global file: ../input/input/Chl_bio_even.bin
(PID.TID 0000.0001)  MDS_READ_FIELD: opening global file: ../input/input/Chl_bio_even.bin
(PID.TID 0000.0001)  MDS_READ_FIELD: opening global file: ../input/input/Chl_bio_even.bin
(PID.TID 0000.0001)  MDS_READ_FIELD: opening global file: ../input/input/Chl_bio_even.bin
(PID.TID 0000.0001)  MDS_READ_FIELD: opening global file: ../input/input/Chl_bio_even.bin
(PID.TID 0000.0001)  MDS_READ_FIELD: opening global file: ../input/input/Chl_bio_even.bin
(PID.TID 0000.0001)  MDS_READ_FIELD: opening global file: ../input/input/Chl_bio_even.bin
(PID.TID 0000.0001)  MDS_READ_FIELD: opening global file: ../input/input/Chl_bio_even.bin
(PID.TID 0000.0001)  MDS_READ_FIELD: opening global file: ../input/input/Chl_bio_even.bin
(PID.TID 0000.0001)  MDS_READ_FIELD: opening global file: ../input/input/Chl_bio_even.bin
(PID.TID 0000.0001) // =======================================================
(PID.TID 0000.0001) // Model current state
(PID.TID 0000.0001) // =======================================================
(PID.TID 0000.0001) 
(PID.TID 0000.0001) // =======================================================
(PID.TID 0000.0001) // Begin MONITOR dynamic field statistics
(PID.TID 0000.0001) // =======================================================
(PID.TID 0000.0001) %MON time_tsnumber                =               5644800
(PID.TID 0000.0001) %MON time_secondsf                =   2.4385536000000000E+11
(PID.TID 0000.0001) %MON dynstat_eta_max              =   9.3755788342258450E-01
(PID.TID 0000.0001) %MON dynstat_eta_min              =  -1.7306042755481776E+00
(PID.TID 0000.0001) %MON dynstat_eta_mean             =   1.6246257108922902E-10
(PID.TID 0000.0001) %MON dynstat_eta_sd               =   6.5178731078585439E-01
(PID.TID 0000.0001) %MON dynstat_eta_del2             =   9.2891361698735429E-04
(PID.TID 0000.0001) %MON dynstat_uvel_max             =   1.5507010426340442E-01
(PID.TID 0000.0001) %MON dynstat_uvel_min             =  -1.8450839420854095E-01
(PID.TID 0000.0001) %MON dynstat_uvel_mean            =   2.9502714531933726E-03
(PID.TID 0000.0001) %MON dynstat_uvel_sd              =   1.3889038797601260E-02
(PID.TID 0000.0001) %MON dynstat_uvel_del2            =   3.8112943275887823E-05
(PID.TID 0000.0001) %MON dynstat_vvel_max             =   1.1197724506262370E-01
(PID.TID 0000.0001) %MON dynstat_vvel_min             =  -1.5223637120169622E-01
(PID.TID 0000.0001) %MON dynstat_vvel_mean            =  -1.9308448637590122E-04
(PID.TID 0000.0001) %MON dynstat_vvel_sd              =   6.3587600692689072E-03
(PID.TID 0000.0001) %MON dynstat_vvel_del2            =   2.6616594379894838E-05
(PID.TID 0000.0001) %MON dynstat_wvel_max             =   4.3080633446447992E-05
(PID.TID 0000.0001) %MON dynstat_wvel_min             =  -6.4970200391657162E-05
(PID.TID 0000.0001) %MON dynstat_wvel_mean            =  -3.6601022929591253E-22
(PID.TID 0000.0001) %MON dynstat_wvel_sd              =   1.9051103185233318E-06
(PID.TID 0000.0001) %MON dynstat_wvel_del2            =   1.3074537000181549E-08
(PID.TID 0000.0001) %MON dynstat_theta_max            =   2.9951462807691811E+01
(PID.TID 0000.0001) %MON dynstat_theta_min            =  -2.1378475686010163E+00
(PID.TID 0000.0001) %MON dynstat_theta_mean           =   3.7550907107470177E+00
(PID.TID 0000.0001) %MON dynstat_theta_sd             =   5.1497435058859971E+00
(PID.TID 0000.0001) %MON dynstat_theta_del2           =   2.2484814302737386E-03
(PID.TID 0000.0001) %MON dynstat_salt_max             =   3.7554077754206418E+01
(PID.TID 0000.0001) %MON dynstat_salt_min             =   3.1355930984643138E+01
(PID.TID 0000.0001) %MON dynstat_salt_mean            =   3.4543282271396990E+01
(PID.TID 0000.0001) %MON dynstat_salt_sd              =   3.5868549207265438E-01
(PID.TID 0000.0001) %MON dynstat_salt_del2            =   3.8184709121527621E-04
(PID.TID 0000.0001) %MON forcing_qnet_max             =   4.4937911987304688E+02
(PID.TID 0000.0001) %MON forcing_qnet_min             =  -2.0417861938476562E+02
(PID.TID 0000.0001) %MON forcing_qnet_mean            =  -1.7476785758605494E+01
(PID.TID 0000.0001) %MON forcing_qnet_sd              =   1.1366008303785441E+02
(PID.TID 0000.0001) %MON forcing_qnet_del2            =   2.8634827682350800E-01
(PID.TID 0000.0001) %MON forcing_qsw_max              =   0.0000000000000000E+00
(PID.TID 0000.0001) %MON forcing_qsw_min              =   0.0000000000000000E+00
(PID.TID 0000.0001) %MON forcing_qsw_mean             =   0.0000000000000000E+00
(PID.TID 0000.0001) %MON forcing_qsw_sd               =   0.0000000000000000E+00
(PID.TID 0000.0001) %MON forcing_qsw_del2             =   0.0000000000000000E+00
(PID.TID 0000.0001) %MON forcing_empmr_max            =   6.9206222512718796E-05
(PID.TID 0000.0001) %MON forcing_empmr_min            =  -1.5544422772961752E-04
(PID.TID 0000.0001) %MON forcing_empmr_mean           =   1.2460352661810301E-14
(PID.TID 0000.0001) %MON forcing_empmr_sd             =   2.4700019777611149E-05
(PID.TID 0000.0001) %MON forcing_empmr_del2           =   1.1591736879228609E-07
(PID.TID 0000.0001) %MON forcing_fu_max               =   2.8468748927116394E-01
(PID.TID 0000.0001) %MON forcing_fu_min               =  -1.5522694587707520E-01
(PID.TID 0000.0001) %MON forcing_fu_mean              =   1.7556170217892433E-02
(PID.TID 0000.0001) %MON forcing_fu_sd                =   9.0000334104050450E-02
(PID.TID 0000.0001) %MON forcing_fu_del2              =   2.6696712158131967E-04
(PID.TID 0000.0001) %MON forcing_fv_max               =   2.1343359351158142E-01
(PID.TID 0000.0001) %MON forcing_fv_min               =  -1.7404061555862427E-01
(PID.TID 0000.0001) %MON forcing_fv_mean              =  -5.8961451090369437E-03
(PID.TID 0000.0001) %MON forcing_fv_sd                =   4.6452039259649462E-02
(PID.TID 0000.0001) %MON forcing_fv_del2              =   1.8991860252816603E-04
(PID.TID 0000.0001) %MON advcfl_uvel_max              =   4.0045216386264210E-02
(PID.TID 0000.0001) %MON advcfl_vvel_max              =   2.1032594024274730E-02
(PID.TID 0000.0001) %MON advcfl_wvel_max              =   1.3150163344719480E-02
(PID.TID 0000.0001) %MON advcfl_W_hf_max              =   1.5498406799133672E-02
(PID.TID 0000.0001) %MON pe_b_mean                    =   5.8641869340709358E-04
(PID.TID 0000.0001) %MON ke_max                       =   1.7893934739356746E-02
(PID.TID 0000.0001) %MON ke_mean                      =   1.1152732963384502E-04
(PID.TID 0000.0001) %MON ke_vol                       =   1.1739855207380157E+18
(PID.TID 0000.0001) %MON vort_r_min                   =  -5.5333382194170067E-07
(PID.TID 0000.0001) %MON vort_r_max                   =   6.2092681877331846E-07
(PID.TID 0000.0001) %MON vort_a_mean                  =  -2.5798915502264678E-05
(PID.TID 0000.0001) %MON vort_a_sd                    =   7.3558772795087853E-05
(PID.TID 0000.0001) %MON vort_p_mean                  =  -3.0020960747216345E-05
(PID.TID 0000.0001) %MON vort_p_sd                    =   9.8090578536761918E-05
(PID.TID 0000.0001) %MON surfExpan_theta_mean         =  -3.2318359898147782E-07
(PID.TID 0000.0001) %MON surfExpan_salt_mean          =   2.1976907188860100E-08
(PID.TID 0000.0001) // =======================================================
(PID.TID 0000.0001) // End MONITOR dynamic field statistics
(PID.TID 0000.0001) // =======================================================
(PID.TID 0000.0001) // =======================================================
(PID.TID 0000.0001) // Begin MONITOR ptracer field statistics
(PID.TID 0000.0001) // =======================================================
(PID.TID 0000.0001) %MON trcstat_ptracer01_max        =   2.3885195312500000E+03
(PID.TID 0000.0001) %MON trcstat_ptracer01_min        =   1.7784403076171875E+03
(PID.TID 0000.0001) %MON trcstat_ptracer01_mean       =   2.2509315639758902E+03
(PID.TID 0000.0001) %MON trcstat_ptracer01_sd         =   9.3596728333844240E+01
(PID.TID 0000.0001) %MON trcstat_ptracer01_del2       =   4.1355262698581592E-02
(PID.TID 0000.0001) %MON trcstat_ptracer02_max        =   4.9189728498458862E-01
(PID.TID 0000.0001) %MON trcstat_ptracer02_min        =   3.4448005408194149E-06
(PID.TID 0000.0001) %MON trcstat_ptracer02_mean       =   6.8566155435814567E-03
(PID.TID 0000.0001) %MON trcstat_ptracer02_sd         =   2.1791673189452486E-02
(PID.TID 0000.0001) %MON trcstat_ptracer02_del2       =   4.3823581662228965E-05
(PID.TID 0000.0001) %MON trcstat_ptracer03_max        =   1.2856912612915039E+00
(PID.TID 0000.0001) %MON trcstat_ptracer03_min        =   1.0303203453077003E-05
(PID.TID 0000.0001) %MON trcstat_ptracer03_mean       =   1.9041349788603171E-02
(PID.TID 0000.0001) %MON trcstat_ptracer03_sd         =   5.9042136787801278E-02
(PID.TID 0000.0001) %MON trcstat_ptracer03_del2       =   1.2092778888522229E-04
(PID.TID 0000.0001) %MON trcstat_ptracer04_max        =   4.6636150360107422E+01
(PID.TID 0000.0001) %MON trcstat_ptracer04_min        =   1.2656563892960548E-02
(PID.TID 0000.0001) %MON trcstat_ptracer04_mean       =   3.0984188714693634E+01
(PID.TID 0000.0001) %MON trcstat_ptracer04_sd         =   9.0362524357972625E+00
(PID.TID 0000.0001) %MON trcstat_ptracer04_del2       =   4.5442558088492849E-03
(PID.TID 0000.0001) %MON trcstat_ptracer05_max        =   0.0000000000000000E+00
(PID.TID 0000.0001) %MON trcstat_ptracer05_min        =   0.0000000000000000E+00
(PID.TID 0000.0001) %MON trcstat_ptracer05_mean       =   0.0000000000000000E+00
(PID.TID 0000.0001) %MON trcstat_ptracer05_sd         =   0.0000000000000000E+00
(PID.TID 0000.0001) %MON trcstat_ptracer05_del2       =   0.0000000000000000E+00
(PID.TID 0000.0001) %MON trcstat_ptracer06_max        =   0.0000000000000000E+00
(PID.TID 0000.0001) %MON trcstat_ptracer06_min        =   0.0000000000000000E+00
(PID.TID 0000.0001) %MON trcstat_ptracer06_mean       =   0.0000000000000000E+00
(PID.TID 0000.0001) %MON trcstat_ptracer06_sd         =   0.0000000000000000E+00
(PID.TID 0000.0001) %MON trcstat_ptracer06_del2       =   0.0000000000000000E+00
(PID.TID 0000.0001) %MON trcstat_ptracer07_max        =   1.2000000569969416E-03
(PID.TID 0000.0001) %MON trcstat_ptracer07_min        =   2.2388865181710571E-04
(PID.TID 0000.0001) %MON trcstat_ptracer07_mean       =   5.3187118656430237E-04
(PID.TID 0000.0001) %MON trcstat_ptracer07_sd         =   1.1345939890648178E-04
(PID.TID 0000.0001) %MON trcstat_ptracer07_del2       =   8.0465692805221464E-08
(PID.TID 0000.0001) %MON trcstat_ptracer08_max        =   1.2458183288574219E+01
(PID.TID 0000.0001) %MON trcstat_ptracer08_min        =   6.9934277862623165E-31
(PID.TID 0000.0001) %MON trcstat_ptracer08_mean       =   5.4199688672857842E-02
(PID.TID 0000.0001) %MON trcstat_ptracer08_sd         =   2.8725472909696648E-01
(PID.TID 0000.0001) %MON trcstat_ptracer08_del2       =   9.5366001263406052E-04
(PID.TID 0000.0001) %MON trcstat_ptracer09_max        =   1.8804804086685181E+00
(PID.TID 0000.0001) %MON trcstat_ptracer09_min        =   1.0556117945525467E-31
(PID.TID 0000.0001) %MON trcstat_ptracer09_mean       =   8.1810850770175046E-03
(PID.TID 0000.0001) %MON trcstat_ptracer09_sd         =   4.3359204337590364E-02
(PID.TID 0000.0001) %MON trcstat_ptracer09_del2       =   1.4394868031835522E-04
(PID.TID 0000.0001) %MON trcstat_ptracer10_max        =   0.0000000000000000E+00
(PID.TID 0000.0001) %MON trcstat_ptracer10_min        =   0.0000000000000000E+00
(PID.TID 0000.0001) %MON trcstat_ptracer10_mean       =   0.0000000000000000E+00
(PID.TID 0000.0001) %MON trcstat_ptracer10_sd         =   0.0000000000000000E+00
(PID.TID 0000.0001) %MON trcstat_ptracer10_del2       =   0.0000000000000000E+00
(PID.TID 0000.0001) %MON trcstat_ptracer11_max        =   2.9382508364506066E-04
(PID.TID 0000.0001) %MON trcstat_ptracer11_min        =   1.6493933486322951E-35
(PID.TID 0000.0001) %MON trcstat_ptracer11_mean       =   1.2782945434335997E-06
(PID.TID 0000.0001) %MON trcstat_ptracer11_sd         =   6.7748756803837678E-06
(PID.TID 0000.0001) %MON trcstat_ptracer11_del2       =   2.2491981292793946E-08
(PID.TID 0000.0001) %MON trcstat_ptracer12_max        =   7.9270348548889160E+00
(PID.TID 0000.0001) %MON trcstat_ptracer12_min        =   3.7008785511716269E-06
(PID.TID 0000.0001) %MON trcstat_ptracer12_mean       =   5.2622951432582464E-02
(PID.TID 0000.0001) %MON trcstat_ptracer12_sd         =   1.4182271333892177E-01
(PID.TID 0000.0001) %MON trcstat_ptracer12_del2       =   4.6049469919216585E-04
(PID.TID 0000.0001) %MON trcstat_ptracer13_max        =   1.1965335607528687E+00
(PID.TID 0000.0001) %MON trcstat_ptracer13_min        =   5.5862318504296127E-07
(PID.TID 0000.0001) %MON trcstat_ptracer13_mean       =   7.9430870100410302E-03
(PID.TID 0000.0001) %MON trcstat_ptracer13_sd         =   2.1407202025918073E-02
(PID.TID 0000.0001) %MON trcstat_ptracer13_del2       =   6.9508634016344280E-05
(PID.TID 0000.0001) %MON trcstat_ptracer14_max        =   0.0000000000000000E+00
(PID.TID 0000.0001) %MON trcstat_ptracer14_min        =   0.0000000000000000E+00
(PID.TID 0000.0001) %MON trcstat_ptracer14_mean       =   0.0000000000000000E+00
(PID.TID 0000.0001) %MON trcstat_ptracer14_sd         =   0.0000000000000000E+00
(PID.TID 0000.0001) %MON trcstat_ptracer14_del2       =   0.0000000000000000E+00
(PID.TID 0000.0001) %MON trcstat_ptracer15_max        =   0.0000000000000000E+00
(PID.TID 0000.0001) %MON trcstat_ptracer15_min        =   0.0000000000000000E+00
(PID.TID 0000.0001) %MON trcstat_ptracer15_mean       =   0.0000000000000000E+00
(PID.TID 0000.0001) %MON trcstat_ptracer15_sd         =   0.0000000000000000E+00
(PID.TID 0000.0001) %MON trcstat_ptracer15_del2       =   0.0000000000000000E+00
(PID.TID 0000.0001) %MON trcstat_ptracer16_max        =   1.8695837934501469E-04
(PID.TID 0000.0001) %MON trcstat_ptracer16_min        =   8.7284866834291819E-11
(PID.TID 0000.0001) %MON trcstat_ptracer16_mean       =   1.2411073446899497E-06
(PID.TID 0000.0001) %MON trcstat_ptracer16_sd         =   3.3448753152894708E-06
(PID.TID 0000.0001) %MON trcstat_ptracer16_del2       =   1.0860724024821156E-08
(PID.TID 0000.0001) %MON trcstat_ptracer17_max        =   0.0000000000000000E+00
(PID.TID 0000.0001) %MON trcstat_ptracer17_min        =   0.0000000000000000E+00
(PID.TID 0000.0001) %MON trcstat_ptracer17_mean       =   0.0000000000000000E+00
(PID.TID 0000.0001) %MON trcstat_ptracer17_sd         =   0.0000000000000000E+00
(PID.TID 0000.0001) %MON trcstat_ptracer17_del2       =   0.0000000000000000E+00
(PID.TID 0000.0001) %MON trcstat_ptracer18_max        =   3.1421303283423185E-03
(PID.TID 0000.0001) %MON trcstat_ptracer18_min        =   8.3857443655688257E-08
(PID.TID 0000.0001) %MON trcstat_ptracer18_mean       =   6.1858114692508311E-06
(PID.TID 0000.0001) %MON trcstat_ptracer18_sd         =   4.6218233770055170E-05
(PID.TID 0000.0001) %MON trcstat_ptracer18_del2       =   2.2515354284257725E-07
(PID.TID 0000.0001) %MON trcstat_ptracer19_max        =   3.1421303283423185E-03
(PID.TID 0000.0001) %MON trcstat_ptracer19_min        =   8.3857443655688257E-08
(PID.TID 0000.0001) %MON trcstat_ptracer19_mean       =   6.1858114692508311E-06
(PID.TID 0000.0001) %MON trcstat_ptracer19_sd         =   4.6218233770055170E-05
(PID.TID 0000.0001) %MON trcstat_ptracer19_del2       =   2.2515354284257725E-07
(PID.TID 0000.0001) %MON trcstat_ptracer20_max        =   3.1421303283423185E-03
(PID.TID 0000.0001) %MON trcstat_ptracer20_min        =   8.3857443655688257E-08
(PID.TID 0000.0001) %MON trcstat_ptracer20_mean       =   6.1858114692508311E-06
(PID.TID 0000.0001) %MON trcstat_ptracer20_sd         =   4.6218233770055170E-05
(PID.TID 0000.0001) %MON trcstat_ptracer20_del2       =   2.2515354284257725E-07
(PID.TID 0000.0001) %MON trcstat_ptracer21_max        =   3.1421303283423185E-03
(PID.TID 0000.0001) %MON trcstat_ptracer21_min        =   8.3857443655688257E-08
(PID.TID 0000.0001) %MON trcstat_ptracer21_mean       =   6.1858114692508311E-06
(PID.TID 0000.0001) %MON trcstat_ptracer21_sd         =   4.6218233770055170E-05
(PID.TID 0000.0001) %MON trcstat_ptracer21_del2       =   2.2515354284257725E-07
(PID.TID 0000.0001) %MON trcstat_ptracer22_max        =   3.1421303283423185E-03
(PID.TID 0000.0001) %MON trcstat_ptracer22_min        =   8.3857443655688257E-08
(PID.TID 0000.0001) %MON trcstat_ptracer22_mean       =   6.1858114692508311E-06
(PID.TID 0000.0001) %MON trcstat_ptracer22_sd         =   4.6218233770055170E-05
(PID.TID 0000.0001) %MON trcstat_ptracer22_del2       =   2.2515354284257725E-07
(PID.TID 0000.0001) %MON trcstat_ptracer23_max        =   3.1421303283423185E-03
(PID.TID 0000.0001) %MON trcstat_ptracer23_min        =   8.3857443655688257E-08
(PID.TID 0000.0001) %MON trcstat_ptracer23_mean       =   6.1858114692508311E-06
(PID.TID 0000.0001) %MON trcstat_ptracer23_sd         =   4.6218233770055170E-05
(PID.TID 0000.0001) %MON trcstat_ptracer23_del2       =   2.2515354284257725E-07
(PID.TID 0000.0001) %MON trcstat_ptracer24_max        =   3.1421303283423185E-03
(PID.TID 0000.0001) %MON trcstat_ptracer24_min        =   8.3857443655688257E-08
(PID.TID 0000.0001) %MON trcstat_ptracer24_mean       =   6.1858114692508311E-06
(PID.TID 0000.0001) %MON trcstat_ptracer24_sd         =   4.6218233770055170E-05
(PID.TID 0000.0001) %MON trcstat_ptracer24_del2       =   2.2515354284257725E-07
(PID.TID 0000.0001) %MON trcstat_ptracer25_max        =   3.1421303283423185E-03
(PID.TID 0000.0001) %MON trcstat_ptracer25_min        =   8.3857443655688257E-08
(PID.TID 0000.0001) %MON trcstat_ptracer25_mean       =   6.1858114692508311E-06
(PID.TID 0000.0001) %MON trcstat_ptracer25_sd         =   4.6218233770055170E-05
(PID.TID 0000.0001) %MON trcstat_ptracer25_del2       =   2.2515354284257725E-07
(PID.TID 0000.0001) %MON trcstat_ptracer26_max        =   3.1421303283423185E-03
(PID.TID 0000.0001) %MON trcstat_ptracer26_min        =   8.3857443655688257E-08
(PID.TID 0000.0001) %MON trcstat_ptracer26_mean       =   6.1858114692508311E-06
(PID.TID 0000.0001) %MON trcstat_ptracer26_sd         =   4.6218233770055170E-05
(PID.TID 0000.0001) %MON trcstat_ptracer26_del2       =   2.2515354284257725E-07
(PID.TID 0000.0001) %MON trcstat_ptracer27_max        =   3.1421303283423185E-03
(PID.TID 0000.0001) %MON trcstat_ptracer27_min        =   8.3857443655688257E-08
(PID.TID 0000.0001) %MON trcstat_ptracer27_mean       =   6.1858114692508311E-06
(PID.TID 0000.0001) %MON trcstat_ptracer27_sd         =   4.6218233770055170E-05
(PID.TID 0000.0001) %MON trcstat_ptracer27_del2       =   2.2515354284257725E-07
(PID.TID 0000.0001) %MON trcstat_ptracer28_max        =   3.1421303283423185E-03
(PID.TID 0000.0001) %MON trcstat_ptracer28_min        =   8.3857443655688257E-08
(PID.TID 0000.0001) %MON trcstat_ptracer28_mean       =   6.1858114692508311E-06
(PID.TID 0000.0001) %MON trcstat_ptracer28_sd         =   4.6218233770055170E-05
(PID.TID 0000.0001) %MON trcstat_ptracer28_del2       =   2.2515354284257725E-07
(PID.TID 0000.0001) %MON trcstat_ptracer29_max        =   3.1421303283423185E-03
(PID.TID 0000.0001) %MON trcstat_ptracer29_min        =   8.3857443655688257E-08
(PID.TID 0000.0001) %MON trcstat_ptracer29_mean       =   6.1858114692508311E-06
(PID.TID 0000.0001) %MON trcstat_ptracer29_sd         =   4.6218233770055170E-05
(PID.TID 0000.0001) %MON trcstat_ptracer29_del2       =   2.2515354284257725E-07
(PID.TID 0000.0001) %MON trcstat_ptracer30_max        =   3.1421303283423185E-03
(PID.TID 0000.0001) %MON trcstat_ptracer30_min        =   8.3857443655688257E-08
(PID.TID 0000.0001) %MON trcstat_ptracer30_mean       =   6.1858114692508311E-06
(PID.TID 0000.0001) %MON trcstat_ptracer30_sd         =   4.6218233770055170E-05
(PID.TID 0000.0001) %MON trcstat_ptracer30_del2       =   2.2515354284257725E-07
(PID.TID 0000.0001) %MON trcstat_ptracer31_max        =   3.1421303283423185E-03
(PID.TID 0000.0001) %MON trcstat_ptracer31_min        =   8.3857443655688257E-08
(PID.TID 0000.0001) %MON trcstat_ptracer31_mean       =   6.1858114692508311E-06
(PID.TID 0000.0001) %MON trcstat_ptracer31_sd         =   4.6218233770055170E-05
(PID.TID 0000.0001) %MON trcstat_ptracer31_del2       =   2.2515354284257725E-07
(PID.TID 0000.0001) %MON trcstat_ptracer32_max        =   3.1421303283423185E-03
(PID.TID 0000.0001) %MON trcstat_ptracer32_min        =   8.3857443655688257E-08
(PID.TID 0000.0001) %MON trcstat_ptracer32_mean       =   6.1858114692508311E-06
(PID.TID 0000.0001) %MON trcstat_ptracer32_sd         =   4.6218233770055170E-05
(PID.TID 0000.0001) %MON trcstat_ptracer32_del2       =   2.2515354284257725E-07
(PID.TID 0000.0001) %MON trcstat_ptracer33_max        =   3.1421303283423185E-03
(PID.TID 0000.0001) %MON trcstat_ptracer33_min        =   8.3857443655688257E-08
(PID.TID 0000.0001) %MON trcstat_ptracer33_mean       =   6.1858114692508311E-06
(PID.TID 0000.0001) %MON trcstat_ptracer33_sd         =   4.6218233770055170E-05
(PID.TID 0000.0001) %MON trcstat_ptracer33_del2       =   2.2515354284257725E-07
(PID.TID 0000.0001) %MON trcstat_ptracer34_max        =   3.1421303283423185E-03
(PID.TID 0000.0001) %MON trcstat_ptracer34_min        =   8.3857443655688257E-08
(PID.TID 0000.0001) %MON trcstat_ptracer34_mean       =   6.1858114692508311E-06
(PID.TID 0000.0001) %MON trcstat_ptracer34_sd         =   4.6218233770055170E-05
(PID.TID 0000.0001) %MON trcstat_ptracer34_del2       =   2.2515354284257725E-07
(PID.TID 0000.0001) %MON trcstat_ptracer35_max        =   3.1421303283423185E-03
(PID.TID 0000.0001) %MON trcstat_ptracer35_min        =   8.3857443655688257E-08
(PID.TID 0000.0001) %MON trcstat_ptracer35_mean       =   6.1858114692508311E-06
(PID.TID 0000.0001) %MON trcstat_ptracer35_sd         =   4.6218233770055170E-05
(PID.TID 0000.0001) %MON trcstat_ptracer35_del2       =   2.2515354284257725E-07
(PID.TID 0000.0001) %MON trcstat_ptracer36_max        =   3.1421303283423185E-03
(PID.TID 0000.0001) %MON trcstat_ptracer36_min        =   8.3857443655688257E-08
(PID.TID 0000.0001) %MON trcstat_ptracer36_mean       =   6.1858114692508311E-06
(PID.TID 0000.0001) %MON trcstat_ptracer36_sd         =   4.6218233770055170E-05
(PID.TID 0000.0001) %MON trcstat_ptracer36_del2       =   2.2515354284257725E-07
(PID.TID 0000.0001) %MON trcstat_ptracer37_max        =   3.1421303283423185E-03
(PID.TID 0000.0001) %MON trcstat_ptracer37_min        =   8.3857443655688257E-08
(PID.TID 0000.0001) %MON trcstat_ptracer37_mean       =   6.1858114692508311E-06
(PID.TID 0000.0001) %MON trcstat_ptracer37_sd         =   4.6218233770055170E-05
(PID.TID 0000.0001) %MON trcstat_ptracer37_del2       =   2.2515354284257725E-07
(PID.TID 0000.0001) %MON trcstat_ptracer38_max        =   3.1421303283423185E-03
(PID.TID 0000.0001) %MON trcstat_ptracer38_min        =   8.3857443655688257E-08
(PID.TID 0000.0001) %MON trcstat_ptracer38_mean       =   6.1858114692508311E-06
(PID.TID 0000.0001) %MON trcstat_ptracer38_sd         =   4.6218233770055170E-05
(PID.TID 0000.0001) %MON trcstat_ptracer38_del2       =   2.2515354284257725E-07
(PID.TID 0000.0001) %MON trcstat_ptracer39_max        =   3.1421303283423185E-03
(PID.TID 0000.0001) %MON trcstat_ptracer39_min        =   8.3857443655688257E-08
(PID.TID 0000.0001) %MON trcstat_ptracer39_mean       =   6.1858114692508311E-06
(PID.TID 0000.0001) %MON trcstat_ptracer39_sd         =   4.6218233770055170E-05
(PID.TID 0000.0001) %MON trcstat_ptracer39_del2       =   2.2515354284257725E-07
(PID.TID 0000.0001) %MON trcstat_ptracer40_max        =   3.1421303283423185E-03
(PID.TID 0000.0001) %MON trcstat_ptracer40_min        =   8.3857443655688257E-08
(PID.TID 0000.0001) %MON trcstat_ptracer40_mean       =   6.1858114692508311E-06
(PID.TID 0000.0001) %MON trcstat_ptracer40_sd         =   4.6218233770055170E-05
(PID.TID 0000.0001) %MON trcstat_ptracer40_del2       =   2.2515354284257725E-07
(PID.TID 0000.0001) %MON trcstat_ptracer41_max        =   3.1421303283423185E-03
(PID.TID 0000.0001) %MON trcstat_ptracer41_min        =   8.3857443655688257E-08
(PID.TID 0000.0001) %MON trcstat_ptracer41_mean       =   6.1858114692508311E-06
(PID.TID 0000.0001) %MON trcstat_ptracer41_sd         =   4.6218233770055170E-05
(PID.TID 0000.0001) %MON trcstat_ptracer41_del2       =   2.2515354284257725E-07
(PID.TID 0000.0001) %MON trcstat_ptracer42_max        =   3.1421303283423185E-03
(PID.TID 0000.0001) %MON trcstat_ptracer42_min        =   8.3857443655688257E-08
(PID.TID 0000.0001) %MON trcstat_ptracer42_mean       =   6.1858114692508311E-06
(PID.TID 0000.0001) %MON trcstat_ptracer42_sd         =   4.6218233770055170E-05
(PID.TID 0000.0001) %MON trcstat_ptracer42_del2       =   2.2515354284257725E-07
(PID.TID 0000.0001) %MON trcstat_ptracer43_max        =   3.1421303283423185E-03
(PID.TID 0000.0001) %MON trcstat_ptracer43_min        =   8.3857443655688257E-08
(PID.TID 0000.0001) %MON trcstat_ptracer43_mean       =   6.1858114692508311E-06
(PID.TID 0000.0001) %MON trcstat_ptracer43_sd         =   4.6218233770055170E-05
(PID.TID 0000.0001) %MON trcstat_ptracer43_del2       =   2.2515354284257725E-07
(PID.TID 0000.0001) %MON trcstat_ptracer44_max        =   3.1421303283423185E-03
(PID.TID 0000.0001) %MON trcstat_ptracer44_min        =   8.3857443655688257E-08
(PID.TID 0000.0001) %MON trcstat_ptracer44_mean       =   6.1858114692508311E-06
(PID.TID 0000.0001) %MON trcstat_ptracer44_sd         =   4.6218233770055170E-05
(PID.TID 0000.0001) %MON trcstat_ptracer44_del2       =   2.2515354284257725E-07
(PID.TID 0000.0001) %MON trcstat_ptracer45_max        =   3.1421303283423185E-03
(PID.TID 0000.0001) %MON trcstat_ptracer45_min        =   8.3857443655688257E-08
(PID.TID 0000.0001) %MON trcstat_ptracer45_mean       =   6.1858114692508311E-06
(PID.TID 0000.0001) %MON trcstat_ptracer45_sd         =   4.6218233770055170E-05
(PID.TID 0000.0001) %MON trcstat_ptracer45_del2       =   2.2515354284257725E-07
(PID.TID 0000.0001) %MON trcstat_ptracer46_max        =   3.1421303283423185E-03
(PID.TID 0000.0001) %MON trcstat_ptracer46_min        =   8.3857443655688257E-08
(PID.TID 0000.0001) %MON trcstat_ptracer46_mean       =   6.1858114692508311E-06
(PID.TID 0000.0001) %MON trcstat_ptracer46_sd         =   4.6218233770055170E-05
(PID.TID 0000.0001) %MON trcstat_ptracer46_del2       =   2.2515354284257725E-07
(PID.TID 0000.0001) %MON trcstat_ptracer47_max        =   3.1421303283423185E-03
(PID.TID 0000.0001) %MON trcstat_ptracer47_min        =   8.3857443655688257E-08
(PID.TID 0000.0001) %MON trcstat_ptracer47_mean       =   6.1858114692508311E-06
(PID.TID 0000.0001) %MON trcstat_ptracer47_sd         =   4.6218233770055170E-05
(PID.TID 0000.0001) %MON trcstat_ptracer47_del2       =   2.2515354284257725E-07
(PID.TID 0000.0001) %MON trcstat_ptracer48_max        =   3.1421303283423185E-03
(PID.TID 0000.0001) %MON trcstat_ptracer48_min        =   8.3857443655688257E-08
(PID.TID 0000.0001) %MON trcstat_ptracer48_mean       =   6.1858114692508311E-06
(PID.TID 0000.0001) %MON trcstat_ptracer48_sd         =   4.6218233770055170E-05
(PID.TID 0000.0001) %MON trcstat_ptracer48_del2       =   2.2515354284257725E-07
(PID.TID 0000.0001) %MON trcstat_ptracer49_max        =   3.1421303283423185E-03
(PID.TID 0000.0001) %MON trcstat_ptracer49_min        =   8.3857443655688257E-08
(PID.TID 0000.0001) %MON trcstat_ptracer49_mean       =   6.1858114692508311E-06
(PID.TID 0000.0001) %MON trcstat_ptracer49_sd         =   4.6218233770055170E-05
(PID.TID 0000.0001) %MON trcstat_ptracer49_del2       =   2.2515354284257725E-07
(PID.TID 0000.0001) %MON trcstat_ptracer50_max        =   3.1421303283423185E-03
(PID.TID 0000.0001) %MON trcstat_ptracer50_min        =   8.3857443655688257E-08
(PID.TID 0000.0001) %MON trcstat_ptracer50_mean       =   6.1858114692508311E-06
(PID.TID 0000.0001) %MON trcstat_ptracer50_sd         =   4.6218233770055170E-05
(PID.TID 0000.0001) %MON trcstat_ptracer50_del2       =   2.2515354284257725E-07
(PID.TID 0000.0001) %MON trcstat_ptracer51_max        =   3.1421303283423185E-03
(PID.TID 0000.0001) %MON trcstat_ptracer51_min        =   8.3857443655688257E-08
(PID.TID 0000.0001) %MON trcstat_ptracer51_mean       =   6.1858114692508311E-06
(PID.TID 0000.0001) %MON trcstat_ptracer51_sd         =   4.6218233770055170E-05
(PID.TID 0000.0001) %MON trcstat_ptracer51_del2       =   2.2515354284257725E-07
(PID.TID 0000.0001) %MON trcstat_ptracer52_max        =   3.1421303283423185E-03
(PID.TID 0000.0001) %MON trcstat_ptracer52_min        =   8.3857443655688257E-08
(PID.TID 0000.0001) %MON trcstat_ptracer52_mean       =   6.1858114692508311E-06
(PID.TID 0000.0001) %MON trcstat_ptracer52_sd         =   4.6218233770055170E-05
(PID.TID 0000.0001) %MON trcstat_ptracer52_del2       =   2.2515354284257725E-07
(PID.TID 0000.0001) %MON trcstat_ptracer53_max        =   3.1421303283423185E-03
(PID.TID 0000.0001) %MON trcstat_ptracer53_min        =   8.3857443655688257E-08
(PID.TID 0000.0001) %MON trcstat_ptracer53_mean       =   6.1858114692508311E-06
(PID.TID 0000.0001) %MON trcstat_ptracer53_sd         =   4.6218233770055170E-05
(PID.TID 0000.0001) %MON trcstat_ptracer53_del2       =   2.2515354284257725E-07
(PID.TID 0000.0001) %MON trcstat_ptracer54_max        =   3.1421303283423185E-03
(PID.TID 0000.0001) %MON trcstat_ptracer54_min        =   8.3857443655688257E-08
(PID.TID 0000.0001) %MON trcstat_ptracer54_mean       =   6.1858114692508311E-06
(PID.TID 0000.0001) %MON trcstat_ptracer54_sd         =   4.6218233770055170E-05
(PID.TID 0000.0001) %MON trcstat_ptracer54_del2       =   2.2515354284257725E-07
(PID.TID 0000.0001) %MON trcstat_ptracer55_max        =   3.1421303283423185E-03
(PID.TID 0000.0001) %MON trcstat_ptracer55_min        =   8.3857443655688257E-08
(PID.TID 0000.0001) %MON trcstat_ptracer55_mean       =   6.1858114692508311E-06
(PID.TID 0000.0001) %MON trcstat_ptracer55_sd         =   4.6218233770055170E-05
(PID.TID 0000.0001) %MON trcstat_ptracer55_del2       =   2.2515354284257725E-07
(PID.TID 0000.0001) %MON trcstat_ptracer56_max        =   3.1421303283423185E-03
(PID.TID 0000.0001) %MON trcstat_ptracer56_min        =   8.3857443655688257E-08
(PID.TID 0000.0001) %MON trcstat_ptracer56_mean       =   6.1858114692508311E-06
(PID.TID 0000.0001) %MON trcstat_ptracer56_sd         =   4.6218233770055170E-05
(PID.TID 0000.0001) %MON trcstat_ptracer56_del2       =   2.2515354284257725E-07
(PID.TID 0000.0001) %MON trcstat_ptracer57_max        =   3.1421303283423185E-03
(PID.TID 0000.0001) %MON trcstat_ptracer57_min        =   8.3857443655688257E-08
(PID.TID 0000.0001) %MON trcstat_ptracer57_mean       =   6.1858114692508311E-06
(PID.TID 0000.0001) %MON trcstat_ptracer57_sd         =   4.6218233770055170E-05
(PID.TID 0000.0001) %MON trcstat_ptracer57_del2       =   2.2515354284257725E-07
(PID.TID 0000.0001) %MON trcstat_ptracer58_max        =   3.1421303283423185E-03
(PID.TID 0000.0001) %MON trcstat_ptracer58_min        =   8.3857443655688257E-08
(PID.TID 0000.0001) %MON trcstat_ptracer58_mean       =   6.1858114692508311E-06
(PID.TID 0000.0001) %MON trcstat_ptracer58_sd         =   4.6218233770055170E-05
(PID.TID 0000.0001) %MON trcstat_ptracer58_del2       =   2.2515354284257725E-07
(PID.TID 0000.0001) %MON trcstat_ptracer59_max        =   3.1421303283423185E-03
(PID.TID 0000.0001) %MON trcstat_ptracer59_min        =   8.3857443655688257E-08
(PID.TID 0000.0001) %MON trcstat_ptracer59_mean       =   6.1858114692508311E-06
(PID.TID 0000.0001) %MON trcstat_ptracer59_sd         =   4.6218233770055170E-05
(PID.TID 0000.0001) %MON trcstat_ptracer59_del2       =   2.2515354284257725E-07
(PID.TID 0000.0001) %MON trcstat_ptracer60_max        =   3.1421303283423185E-03
(PID.TID 0000.0001) %MON trcstat_ptracer60_min        =   8.3857443655688257E-08
(PID.TID 0000.0001) %MON trcstat_ptracer60_mean       =   6.1858114692508311E-06
(PID.TID 0000.0001) %MON trcstat_ptracer60_sd         =   4.6218233770055170E-05
(PID.TID 0000.0001) %MON trcstat_ptracer60_del2       =   2.2515354284257725E-07
(PID.TID 0000.0001) %MON trcstat_ptracer61_max        =   3.1421303283423185E-03
(PID.TID 0000.0001) %MON trcstat_ptracer61_min        =   8.3857443655688257E-08
(PID.TID 0000.0001) %MON trcstat_ptracer61_mean       =   6.1858114692508311E-06
(PID.TID 0000.0001) %MON trcstat_ptracer61_sd         =   4.6218233770055170E-05
(PID.TID 0000.0001) %MON trcstat_ptracer61_del2       =   2.2515354284257725E-07
(PID.TID 0000.0001) %MON trcstat_ptracer62_max        =   3.1421303283423185E-03
(PID.TID 0000.0001) %MON trcstat_ptracer62_min        =   8.3857443655688257E-08
(PID.TID 0000.0001) %MON trcstat_ptracer62_mean       =   6.1858114692508311E-06
(PID.TID 0000.0001) %MON trcstat_ptracer62_sd         =   4.6218233770055170E-05
(PID.TID 0000.0001) %MON trcstat_ptracer62_del2       =   2.2515354284257725E-07
(PID.TID 0000.0001) %MON trcstat_ptracer63_max        =   3.1421303283423185E-03
(PID.TID 0000.0001) %MON trcstat_ptracer63_min        =   8.3857443655688257E-08
(PID.TID 0000.0001) %MON trcstat_ptracer63_mean       =   6.1858114692508311E-06
(PID.TID 0000.0001) %MON trcstat_ptracer63_sd         =   4.6218233770055170E-05
(PID.TID 0000.0001) %MON trcstat_ptracer63_del2       =   2.2515354284257725E-07
(PID.TID 0000.0001) %MON trcstat_ptracer64_max        =   3.1421303283423185E-03
(PID.TID 0000.0001) %MON trcstat_ptracer64_min        =   8.3857443655688257E-08
(PID.TID 0000.0001) %MON trcstat_ptracer64_mean       =   6.1858114692508311E-06
(PID.TID 0000.0001) %MON trcstat_ptracer64_sd         =   4.6218233770055170E-05
(PID.TID 0000.0001) %MON trcstat_ptracer64_del2       =   2.2515354284257725E-07
(PID.TID 0000.0001) %MON trcstat_ptracer65_max        =   3.1421303283423185E-03
(PID.TID 0000.0001) %MON trcstat_ptracer65_min        =   8.3857443655688257E-08
(PID.TID 0000.0001) %MON trcstat_ptracer65_mean       =   6.1858114692508311E-06
(PID.TID 0000.0001) %MON trcstat_ptracer65_sd         =   4.6218233770055170E-05
(PID.TID 0000.0001) %MON trcstat_ptracer65_del2       =   2.2515354284257725E-07
(PID.TID 0000.0001) %MON trcstat_ptracer66_max        =   3.1421303283423185E-03
(PID.TID 0000.0001) %MON trcstat_ptracer66_min        =   8.3857443655688257E-08
(PID.TID 0000.0001) %MON trcstat_ptracer66_mean       =   6.1858114692508311E-06
(PID.TID 0000.0001) %MON trcstat_ptracer66_sd         =   4.6218233770055170E-05
(PID.TID 0000.0001) %MON trcstat_ptracer66_del2       =   2.2515354284257725E-07
(PID.TID 0000.0001) %MON trcstat_ptracer67_max        =   3.1421303283423185E-03
(PID.TID 0000.0001) %MON trcstat_ptracer67_min        =   8.3857443655688257E-08
(PID.TID 0000.0001) %MON trcstat_ptracer67_mean       =   6.1858114692508311E-06
(PID.TID 0000.0001) %MON trcstat_ptracer67_sd         =   4.6218233770055170E-05
(PID.TID 0000.0001) %MON trcstat_ptracer67_del2       =   2.2515354284257725E-07
(PID.TID 0000.0001) %MON trcstat_ptracer68_max        =   3.1421303283423185E-03
(PID.TID 0000.0001) %MON trcstat_ptracer68_min        =   8.3857443655688257E-08
(PID.TID 0000.0001) %MON trcstat_ptracer68_mean       =   6.1858114692508311E-06
(PID.TID 0000.0001) %MON trcstat_ptracer68_sd         =   4.6218233770055170E-05
(PID.TID 0000.0001) %MON trcstat_ptracer68_del2       =   2.2515354284257725E-07
(PID.TID 0000.0001) %MON trcstat_ptracer69_max        =   3.1421303283423185E-03
(PID.TID 0000.0001) %MON trcstat_ptracer69_min        =   8.3857443655688257E-08
(PID.TID 0000.0001) %MON trcstat_ptracer69_mean       =   6.1858114692508311E-06
(PID.TID 0000.0001) %MON trcstat_ptracer69_sd         =   4.6218233770055170E-05
(PID.TID 0000.0001) %MON trcstat_ptracer69_del2       =   2.2515354284257725E-07
(PID.TID 0000.0001) %MON trcstat_ptracer70_max        =   3.1421303283423185E-03
(PID.TID 0000.0001) %MON trcstat_ptracer70_min        =   8.3857443655688257E-08
(PID.TID 0000.0001) %MON trcstat_ptracer70_mean       =   6.1858114692508311E-06
(PID.TID 0000.0001) %MON trcstat_ptracer70_sd         =   4.6218233770055170E-05
(PID.TID 0000.0001) %MON trcstat_ptracer70_del2       =   2.2515354284257725E-07
(PID.TID 0000.0001) %MON trcstat_ptracer71_max        =   3.1421303283423185E-03
(PID.TID 0000.0001) %MON trcstat_ptracer71_min        =   8.3857443655688257E-08
(PID.TID 0000.0001) %MON trcstat_ptracer71_mean       =   6.1858114692508311E-06
(PID.TID 0000.0001) %MON trcstat_ptracer71_sd         =   4.6218233770055170E-05
(PID.TID 0000.0001) %MON trcstat_ptracer71_del2       =   2.2515354284257725E-07
(PID.TID 0000.0001) %MON trcstat_ptracer72_max        =   3.1421303283423185E-03
(PID.TID 0000.0001) %MON trcstat_ptracer72_min        =   8.3857443655688257E-08
(PID.TID 0000.0001) %MON trcstat_ptracer72_mean       =   6.1858114692508311E-06
(PID.TID 0000.0001) %MON trcstat_ptracer72_sd         =   4.6218233770055170E-05
(PID.TID 0000.0001) %MON trcstat_ptracer72_del2       =   2.2515354284257725E-07
(PID.TID 0000.0001) %MON trcstat_ptracer73_max        =   4.7428382094949484E-04
(PID.TID 0000.0001) %MON trcstat_ptracer73_min        =   1.2657726422560245E-08
(PID.TID 0000.0001) %MON trcstat_ptracer73_mean       =   9.3370738994397753E-07
(PID.TID 0000.0001) %MON trcstat_ptracer73_sd         =   6.9763371549892526E-06
(PID.TID 0000.0001) %MON trcstat_ptracer73_del2       =   3.3985439911803426E-08
(PID.TID 0000.0001) %MON trcstat_ptracer74_max        =   4.7428382094949484E-04
(PID.TID 0000.0001) %MON trcstat_ptracer74_min        =   1.2657726422560245E-08
(PID.TID 0000.0001) %MON trcstat_ptracer74_mean       =   9.3370738994397753E-07
(PID.TID 0000.0001) %MON trcstat_ptracer74_sd         =   6.9763371549892526E-06
(PID.TID 0000.0001) %MON trcstat_ptracer74_del2       =   3.3985439911803426E-08
(PID.TID 0000.0001) %MON trcstat_ptracer75_max        =   4.7428382094949484E-04
(PID.TID 0000.0001) %MON trcstat_ptracer75_min        =   1.2657726422560245E-08
(PID.TID 0000.0001) %MON trcstat_ptracer75_mean       =   9.3370738994397753E-07
(PID.TID 0000.0001) %MON trcstat_ptracer75_sd         =   6.9763371549892526E-06
(PID.TID 0000.0001) %MON trcstat_ptracer75_del2       =   3.3985439911803426E-08
(PID.TID 0000.0001) %MON trcstat_ptracer76_max        =   4.7428382094949484E-04
(PID.TID 0000.0001) %MON trcstat_ptracer76_min        =   1.2657726422560245E-08
(PID.TID 0000.0001) %MON trcstat_ptracer76_mean       =   9.3370738994397753E-07
(PID.TID 0000.0001) %MON trcstat_ptracer76_sd         =   6.9763371549892526E-06
(PID.TID 0000.0001) %MON trcstat_ptracer76_del2       =   3.3985439911803426E-08
(PID.TID 0000.0001) %MON trcstat_ptracer77_max        =   4.7428382094949484E-04
(PID.TID 0000.0001) %MON trcstat_ptracer77_min        =   1.2657726422560245E-08
(PID.TID 0000.0001) %MON trcstat_ptracer77_mean       =   9.3370738994397753E-07
(PID.TID 0000.0001) %MON trcstat_ptracer77_sd         =   6.9763371549892526E-06
(PID.TID 0000.0001) %MON trcstat_ptracer77_del2       =   3.3985439911803426E-08
(PID.TID 0000.0001) %MON trcstat_ptracer78_max        =   4.7428382094949484E-04
(PID.TID 0000.0001) %MON trcstat_ptracer78_min        =   1.2657726422560245E-08
(PID.TID 0000.0001) %MON trcstat_ptracer78_mean       =   9.3370738994397753E-07
(PID.TID 0000.0001) %MON trcstat_ptracer78_sd         =   6.9763371549892526E-06
(PID.TID 0000.0001) %MON trcstat_ptracer78_del2       =   3.3985439911803426E-08
(PID.TID 0000.0001) %MON trcstat_ptracer79_max        =   4.7428382094949484E-04
(PID.TID 0000.0001) %MON trcstat_ptracer79_min        =   1.2657726422560245E-08
(PID.TID 0000.0001) %MON trcstat_ptracer79_mean       =   9.3370738994397753E-07
(PID.TID 0000.0001) %MON trcstat_ptracer79_sd         =   6.9763371549892526E-06
(PID.TID 0000.0001) %MON trcstat_ptracer79_del2       =   3.3985439911803426E-08
(PID.TID 0000.0001) %MON trcstat_ptracer80_max        =   4.7428382094949484E-04
(PID.TID 0000.0001) %MON trcstat_ptracer80_min        =   1.2657726422560245E-08
(PID.TID 0000.0001) %MON trcstat_ptracer80_mean       =   9.3370738994397753E-07
(PID.TID 0000.0001) %MON trcstat_ptracer80_sd         =   6.9763371549892526E-06
(PID.TID 0000.0001) %MON trcstat_ptracer80_del2       =   3.3985439911803426E-08
(PID.TID 0000.0001) %MON trcstat_ptracer81_max        =   4.7428382094949484E-04
(PID.TID 0000.0001) %MON trcstat_ptracer81_min        =   1.2657726422560245E-08
(PID.TID 0000.0001) %MON trcstat_ptracer81_mean       =   9.3370738994397753E-07
(PID.TID 0000.0001) %MON trcstat_ptracer81_sd         =   6.9763371549892526E-06
(PID.TID 0000.0001) %MON trcstat_ptracer81_del2       =   3.3985439911803426E-08
(PID.TID 0000.0001) %MON trcstat_ptracer82_max        =   4.7428382094949484E-04
(PID.TID 0000.0001) %MON trcstat_ptracer82_min        =   1.2657726422560245E-08
(PID.TID 0000.0001) %MON trcstat_ptracer82_mean       =   9.3370738994397753E-07
(PID.TID 0000.0001) %MON trcstat_ptracer82_sd         =   6.9763371549892526E-06
(PID.TID 0000.0001) %MON trcstat_ptracer82_del2       =   3.3985439911803426E-08
(PID.TID 0000.0001) %MON trcstat_ptracer83_max        =   4.7428382094949484E-04
(PID.TID 0000.0001) %MON trcstat_ptracer83_min        =   1.2657726422560245E-08
(PID.TID 0000.0001) %MON trcstat_ptracer83_mean       =   9.3370738994397753E-07
(PID.TID 0000.0001) %MON trcstat_ptracer83_sd         =   6.9763371549892526E-06
(PID.TID 0000.0001) %MON trcstat_ptracer83_del2       =   3.3985439911803426E-08
(PID.TID 0000.0001) %MON trcstat_ptracer84_max        =   4.7428382094949484E-04
(PID.TID 0000.0001) %MON trcstat_ptracer84_min        =   1.2657726422560245E-08
(PID.TID 0000.0001) %MON trcstat_ptracer84_mean       =   9.3370738994397753E-07
(PID.TID 0000.0001) %MON trcstat_ptracer84_sd         =   6.9763371549892526E-06
(PID.TID 0000.0001) %MON trcstat_ptracer84_del2       =   3.3985439911803426E-08
(PID.TID 0000.0001) %MON trcstat_ptracer85_max        =   4.7428382094949484E-04
(PID.TID 0000.0001) %MON trcstat_ptracer85_min        =   1.2657726422560245E-08
(PID.TID 0000.0001) %MON trcstat_ptracer85_mean       =   9.3370738994397753E-07
(PID.TID 0000.0001) %MON trcstat_ptracer85_sd         =   6.9763371549892526E-06
(PID.TID 0000.0001) %MON trcstat_ptracer85_del2       =   3.3985439911803426E-08
(PID.TID 0000.0001) %MON trcstat_ptracer86_max        =   4.7428382094949484E-04
(PID.TID 0000.0001) %MON trcstat_ptracer86_min        =   1.2657726422560245E-08
(PID.TID 0000.0001) %MON trcstat_ptracer86_mean       =   9.3370738994397753E-07
(PID.TID 0000.0001) %MON trcstat_ptracer86_sd         =   6.9763371549892526E-06
(PID.TID 0000.0001) %MON trcstat_ptracer86_del2       =   3.3985439911803426E-08
(PID.TID 0000.0001) %MON trcstat_ptracer87_max        =   4.7428382094949484E-04
(PID.TID 0000.0001) %MON trcstat_ptracer87_min        =   1.2657726422560245E-08
(PID.TID 0000.0001) %MON trcstat_ptracer87_mean       =   9.3370738994397753E-07
(PID.TID 0000.0001) %MON trcstat_ptracer87_sd         =   6.9763371549892526E-06
(PID.TID 0000.0001) %MON trcstat_ptracer87_del2       =   3.3985439911803426E-08
(PID.TID 0000.0001) %MON trcstat_ptracer88_max        =   4.7428382094949484E-04
(PID.TID 0000.0001) %MON trcstat_ptracer88_min        =   1.2657726422560245E-08
(PID.TID 0000.0001) %MON trcstat_ptracer88_mean       =   9.3370738994397753E-07
(PID.TID 0000.0001) %MON trcstat_ptracer88_sd         =   6.9763371549892526E-06
(PID.TID 0000.0001) %MON trcstat_ptracer88_del2       =   3.3985439911803426E-08
(PID.TID 0000.0001) %MON trcstat_ptracer89_max        =   4.7428382094949484E-04
(PID.TID 0000.0001) %MON trcstat_ptracer89_min        =   1.2657726422560245E-08
(PID.TID 0000.0001) %MON trcstat_ptracer89_mean       =   9.3370738994397753E-07
(PID.TID 0000.0001) %MON trcstat_ptracer89_sd         =   6.9763371549892526E-06
(PID.TID 0000.0001) %MON trcstat_ptracer89_del2       =   3.3985439911803426E-08
(PID.TID 0000.0001) %MON trcstat_ptracer90_max        =   4.7428382094949484E-04
(PID.TID 0000.0001) %MON trcstat_ptracer90_min        =   1.2657726422560245E-08
(PID.TID 0000.0001) %MON trcstat_ptracer90_mean       =   9.3370738994397753E-07
(PID.TID 0000.0001) %MON trcstat_ptracer90_sd         =   6.9763371549892526E-06
(PID.TID 0000.0001) %MON trcstat_ptracer90_del2       =   3.3985439911803426E-08
(PID.TID 0000.0001) %MON trcstat_ptracer91_max        =   4.7428382094949484E-04
(PID.TID 0000.0001) %MON trcstat_ptracer91_min        =   1.2657726422560245E-08
(PID.TID 0000.0001) %MON trcstat_ptracer91_mean       =   9.3370738994397753E-07
(PID.TID 0000.0001) %MON trcstat_ptracer91_sd         =   6.9763371549892526E-06
(PID.TID 0000.0001) %MON trcstat_ptracer91_del2       =   3.3985439911803426E-08
(PID.TID 0000.0001) %MON trcstat_ptracer92_max        =   4.7428382094949484E-04
(PID.TID 0000.0001) %MON trcstat_ptracer92_min        =   1.2657726422560245E-08
(PID.TID 0000.0001) %MON trcstat_ptracer92_mean       =   9.3370738994397753E-07
(PID.TID 0000.0001) %MON trcstat_ptracer92_sd         =   6.9763371549892526E-06
(PID.TID 0000.0001) %MON trcstat_ptracer92_del2       =   3.3985439911803426E-08
(PID.TID 0000.0001) %MON trcstat_ptracer93_max        =   4.7428382094949484E-04
(PID.TID 0000.0001) %MON trcstat_ptracer93_min        =   1.2657726422560245E-08
(PID.TID 0000.0001) %MON trcstat_ptracer93_mean       =   9.3370738994397753E-07
(PID.TID 0000.0001) %MON trcstat_ptracer93_sd         =   6.9763371549892526E-06
(PID.TID 0000.0001) %MON trcstat_ptracer93_del2       =   3.3985439911803426E-08
(PID.TID 0000.0001) %MON trcstat_ptracer94_max        =   4.7428382094949484E-04
(PID.TID 0000.0001) %MON trcstat_ptracer94_min        =   1.2657726422560245E-08
(PID.TID 0000.0001) %MON trcstat_ptracer94_mean       =   9.3370738994397753E-07
(PID.TID 0000.0001) %MON trcstat_ptracer94_sd         =   6.9763371549892526E-06
(PID.TID 0000.0001) %MON trcstat_ptracer94_del2       =   3.3985439911803426E-08
(PID.TID 0000.0001) %MON trcstat_ptracer95_max        =   4.7428382094949484E-04
(PID.TID 0000.0001) %MON trcstat_ptracer95_min        =   1.2657726422560245E-08
(PID.TID 0000.0001) %MON trcstat_ptracer95_mean       =   9.3370738994397753E-07
(PID.TID 0000.0001) %MON trcstat_ptracer95_sd         =   6.9763371549892526E-06
(PID.TID 0000.0001) %MON trcstat_ptracer95_del2       =   3.3985439911803426E-08
(PID.TID 0000.0001) %MON trcstat_ptracer96_max        =   4.7428382094949484E-04
(PID.TID 0000.0001) %MON trcstat_ptracer96_min        =   1.2657726422560245E-08
(PID.TID 0000.0001) %MON trcstat_ptracer96_mean       =   9.3370738994397753E-07
(PID.TID 0000.0001) %MON trcstat_ptracer96_sd         =   6.9763371549892526E-06
(PID.TID 0000.0001) %MON trcstat_ptracer96_del2       =   3.3985439911803426E-08
(PID.TID 0000.0001) %MON trcstat_ptracer97_max        =   4.7428382094949484E-04
(PID.TID 0000.0001) %MON trcstat_ptracer97_min        =   1.2657726422560245E-08
(PID.TID 0000.0001) %MON trcstat_ptracer97_mean       =   9.3370738994397753E-07
(PID.TID 0000.0001) %MON trcstat_ptracer97_sd         =   6.9763371549892526E-06
(PID.TID 0000.0001) %MON trcstat_ptracer97_del2       =   3.3985439911803426E-08
(PID.TID 0000.0001) %MON trcstat_ptracer98_max        =   4.7428382094949484E-04
(PID.TID 0000.0001) %MON trcstat_ptracer98_min        =   1.2657726422560245E-08
(PID.TID 0000.0001) %MON trcstat_ptracer98_mean       =   9.3370738994397753E-07
(PID.TID 0000.0001) %MON trcstat_ptracer98_sd         =   6.9763371549892526E-06
(PID.TID 0000.0001) %MON trcstat_ptracer98_del2       =   3.3985439911803426E-08
(PID.TID 0000.0001) %MON trcstat_ptracer99_max        =   4.7428382094949484E-04
(PID.TID 0000.0001) %MON trcstat_ptracer99_min        =   1.2657726422560245E-08
(PID.TID 0000.0001) %MON trcstat_ptracer99_mean       =   9.3370738994397753E-07
(PID.TID 0000.0001) %MON trcstat_ptracer99_sd         =   6.9763371549892526E-06
(PID.TID 0000.0001) %MON trcstat_ptracer99_del2       =   3.3985439911803426E-08
(PID.TID 0000.0001) %MON trcstat_ptracer0a_max        =   4.7428382094949484E-04
(PID.TID 0000.0001) %MON trcstat_ptracer0a_min        =   1.2657726422560245E-08
(PID.TID 0000.0001) %MON trcstat_ptracer0a_mean       =   9.3370738994397753E-07
(PID.TID 0000.0001) %MON trcstat_ptracer0a_sd         =   6.9763371549892526E-06
(PID.TID 0000.0001) %MON trcstat_ptracer0a_del2       =   3.3985439911803426E-08
(PID.TID 0000.0001) %MON trcstat_ptracer0b_max        =   4.7428382094949484E-04
(PID.TID 0000.0001) %MON trcstat_ptracer0b_min        =   1.2657726422560245E-08
(PID.TID 0000.0001) %MON trcstat_ptracer0b_mean       =   9.3370738994397753E-07
(PID.TID 0000.0001) %MON trcstat_ptracer0b_sd         =   6.9763371549892526E-06
(PID.TID 0000.0001) %MON trcstat_ptracer0b_del2       =   3.3985439911803426E-08
(PID.TID 0000.0001) %MON trcstat_ptracer0c_max        =   4.7428382094949484E-04
(PID.TID 0000.0001) %MON trcstat_ptracer0c_min        =   1.2657726422560245E-08
(PID.TID 0000.0001) %MON trcstat_ptracer0c_mean       =   9.3370738994397753E-07
(PID.TID 0000.0001) %MON trcstat_ptracer0c_sd         =   6.9763371549892526E-06
(PID.TID 0000.0001) %MON trcstat_ptracer0c_del2       =   3.3985439911803426E-08
(PID.TID 0000.0001) %MON trcstat_ptracer0d_max        =   4.7428382094949484E-04
(PID.TID 0000.0001) %MON trcstat_ptracer0d_min        =   1.2657726422560245E-08
(PID.TID 0000.0001) %MON trcstat_ptracer0d_mean       =   9.3370738994397753E-07
(PID.TID 0000.0001) %MON trcstat_ptracer0d_sd         =   6.9763371549892526E-06
(PID.TID 0000.0001) %MON trcstat_ptracer0d_del2       =   3.3985439911803426E-08
(PID.TID 0000.0001) %MON trcstat_ptracer0e_max        =   4.7428382094949484E-04
(PID.TID 0000.0001) %MON trcstat_ptracer0e_min        =   1.2657726422560245E-08
(PID.TID 0000.0001) %MON trcstat_ptracer0e_mean       =   9.3370738994397753E-07
(PID.TID 0000.0001) %MON trcstat_ptracer0e_sd         =   6.9763371549892526E-06
(PID.TID 0000.0001) %MON trcstat_ptracer0e_del2       =   3.3985439911803426E-08
(PID.TID 0000.0001) %MON trcstat_ptracer0f_max        =   4.7428382094949484E-04
(PID.TID 0000.0001) %MON trcstat_ptracer0f_min        =   1.2657726422560245E-08
(PID.TID 0000.0001) %MON trcstat_ptracer0f_mean       =   9.3370738994397753E-07
(PID.TID 0000.0001) %MON trcstat_ptracer0f_sd         =   6.9763371549892526E-06
(PID.TID 0000.0001) %MON trcstat_ptracer0f_del2       =   3.3985439911803426E-08
(PID.TID 0000.0001) %MON trcstat_ptracer0g_max        =   4.7428382094949484E-04
(PID.TID 0000.0001) %MON trcstat_ptracer0g_min        =   1.2657726422560245E-08
(PID.TID 0000.0001) %MON trcstat_ptracer0g_mean       =   9.3370738994397753E-07
(PID.TID 0000.0001) %MON trcstat_ptracer0g_sd         =   6.9763371549892526E-06
(PID.TID 0000.0001) %MON trcstat_ptracer0g_del2       =   3.3985439911803426E-08
(PID.TID 0000.0001) %MON trcstat_ptracer0h_max        =   4.7428382094949484E-04
(PID.TID 0000.0001) %MON trcstat_ptracer0h_min        =   1.2657726422560245E-08
(PID.TID 0000.0001) %MON trcstat_ptracer0h_mean       =   9.3370738994397753E-07
(PID.TID 0000.0001) %MON trcstat_ptracer0h_sd         =   6.9763371549892526E-06
(PID.TID 0000.0001) %MON trcstat_ptracer0h_del2       =   3.3985439911803426E-08
(PID.TID 0000.0001) %MON trcstat_ptracer0i_max        =   4.7428382094949484E-04
(PID.TID 0000.0001) %MON trcstat_ptracer0i_min        =   1.2657726422560245E-08
(PID.TID 0000.0001) %MON trcstat_ptracer0i_mean       =   9.3370738994397753E-07
(PID.TID 0000.0001) %MON trcstat_ptracer0i_sd         =   6.9763371549892526E-06
(PID.TID 0000.0001) %MON trcstat_ptracer0i_del2       =   3.3985439911803426E-08
(PID.TID 0000.0001) %MON trcstat_ptracer0j_max        =   4.7428382094949484E-04
(PID.TID 0000.0001) %MON trcstat_ptracer0j_min        =   1.2657726422560245E-08
(PID.TID 0000.0001) %MON trcstat_ptracer0j_mean       =   9.3370738994397753E-07
(PID.TID 0000.0001) %MON trcstat_ptracer0j_sd         =   6.9763371549892526E-06
(PID.TID 0000.0001) %MON trcstat_ptracer0j_del2       =   3.3985439911803426E-08
(PID.TID 0000.0001) %MON trcstat_ptracer0k_max        =   4.7428382094949484E-04
(PID.TID 0000.0001) %MON trcstat_ptracer0k_min        =   1.2657726422560245E-08
(PID.TID 0000.0001) %MON trcstat_ptracer0k_mean       =   9.3370738994397753E-07
(PID.TID 0000.0001) %MON trcstat_ptracer0k_sd         =   6.9763371549892526E-06
(PID.TID 0000.0001) %MON trcstat_ptracer0k_del2       =   3.3985439911803426E-08
(PID.TID 0000.0001) %MON trcstat_ptracer0l_max        =   4.7428382094949484E-04
(PID.TID 0000.0001) %MON trcstat_ptracer0l_min        =   1.2657726422560245E-08
(PID.TID 0000.0001) %MON trcstat_ptracer0l_mean       =   9.3370738994397753E-07
(PID.TID 0000.0001) %MON trcstat_ptracer0l_sd         =   6.9763371549892526E-06
(PID.TID 0000.0001) %MON trcstat_ptracer0l_del2       =   3.3985439911803426E-08
(PID.TID 0000.0001) %MON trcstat_ptracer0m_max        =   4.7428382094949484E-04
(PID.TID 0000.0001) %MON trcstat_ptracer0m_min        =   1.2657726422560245E-08
(PID.TID 0000.0001) %MON trcstat_ptracer0m_mean       =   9.3370738994397753E-07
(PID.TID 0000.0001) %MON trcstat_ptracer0m_sd         =   6.9763371549892526E-06
(PID.TID 0000.0001) %MON trcstat_ptracer0m_del2       =   3.3985439911803426E-08
(PID.TID 0000.0001) %MON trcstat_ptracer0n_max        =   4.7428382094949484E-04
(PID.TID 0000.0001) %MON trcstat_ptracer0n_min        =   1.2657726422560245E-08
(PID.TID 0000.0001) %MON trcstat_ptracer0n_mean       =   9.3370738994397753E-07
(PID.TID 0000.0001) %MON trcstat_ptracer0n_sd         =   6.9763371549892526E-06
(PID.TID 0000.0001) %MON trcstat_ptracer0n_del2       =   3.3985439911803426E-08
(PID.TID 0000.0001) %MON trcstat_ptracer0o_max        =   4.7428382094949484E-04
(PID.TID 0000.0001) %MON trcstat_ptracer0o_min        =   1.2657726422560245E-08
(PID.TID 0000.0001) %MON trcstat_ptracer0o_mean       =   9.3370738994397753E-07
(PID.TID 0000.0001) %MON trcstat_ptracer0o_sd         =   6.9763371549892526E-06
(PID.TID 0000.0001) %MON trcstat_ptracer0o_del2       =   3.3985439911803426E-08
(PID.TID 0000.0001) %MON trcstat_ptracer0p_max        =   4.7428382094949484E-04
(PID.TID 0000.0001) %MON trcstat_ptracer0p_min        =   1.2657726422560245E-08
(PID.TID 0000.0001) %MON trcstat_ptracer0p_mean       =   9.3370738994397753E-07
(PID.TID 0000.0001) %MON trcstat_ptracer0p_sd         =   6.9763371549892526E-06
(PID.TID 0000.0001) %MON trcstat_ptracer0p_del2       =   3.3985439911803426E-08
(PID.TID 0000.0001) %MON trcstat_ptracer0q_max        =   4.7428382094949484E-04
(PID.TID 0000.0001) %MON trcstat_ptracer0q_min        =   1.2657726422560245E-08
(PID.TID 0000.0001) %MON trcstat_ptracer0q_mean       =   9.3370738994397753E-07
(PID.TID 0000.0001) %MON trcstat_ptracer0q_sd         =   6.9763371549892526E-06
(PID.TID 0000.0001) %MON trcstat_ptracer0q_del2       =   3.3985439911803426E-08
(PID.TID 0000.0001) %MON trcstat_ptracer0r_max        =   4.7428382094949484E-04
(PID.TID 0000.0001) %MON trcstat_ptracer0r_min        =   1.2657726422560245E-08
(PID.TID 0000.0001) %MON trcstat_ptracer0r_mean       =   9.3370738994397753E-07
(PID.TID 0000.0001) %MON trcstat_ptracer0r_sd         =   6.9763371549892526E-06
(PID.TID 0000.0001) %MON trcstat_ptracer0r_del2       =   3.3985439911803426E-08
(PID.TID 0000.0001) %MON trcstat_ptracer0s_max        =   4.7428382094949484E-04
(PID.TID 0000.0001) %MON trcstat_ptracer0s_min        =   1.2657726422560245E-08
(PID.TID 0000.0001) %MON trcstat_ptracer0s_mean       =   9.3370738994397753E-07
(PID.TID 0000.0001) %MON trcstat_ptracer0s_sd         =   6.9763371549892526E-06
(PID.TID 0000.0001) %MON trcstat_ptracer0s_del2       =   3.3985439911803426E-08
(PID.TID 0000.0001) %MON trcstat_ptracer0t_max        =   4.7428382094949484E-04
(PID.TID 0000.0001) %MON trcstat_ptracer0t_min        =   1.2657726422560245E-08
(PID.TID 0000.0001) %MON trcstat_ptracer0t_mean       =   9.3370738994397753E-07
(PID.TID 0000.0001) %MON trcstat_ptracer0t_sd         =   6.9763371549892526E-06
(PID.TID 0000.0001) %MON trcstat_ptracer0t_del2       =   3.3985439911803426E-08
(PID.TID 0000.0001) %MON trcstat_ptracer0u_max        =   4.7428382094949484E-04
(PID.TID 0000.0001) %MON trcstat_ptracer0u_min        =   1.2657726422560245E-08
(PID.TID 0000.0001) %MON trcstat_ptracer0u_mean       =   9.3370738994397753E-07
(PID.TID 0000.0001) %MON trcstat_ptracer0u_sd         =   6.9763371549892526E-06
(PID.TID 0000.0001) %MON trcstat_ptracer0u_del2       =   3.3985439911803426E-08
(PID.TID 0000.0001) %MON trcstat_ptracer0v_max        =   4.7428382094949484E-04
(PID.TID 0000.0001) %MON trcstat_ptracer0v_min        =   1.2657726422560245E-08
(PID.TID 0000.0001) %MON trcstat_ptracer0v_mean       =   9.3370738994397753E-07
(PID.TID 0000.0001) %MON trcstat_ptracer0v_sd         =   6.9763371549892526E-06
(PID.TID 0000.0001) %MON trcstat_ptracer0v_del2       =   3.3985439911803426E-08
(PID.TID 0000.0001) %MON trcstat_ptracer0w_max        =   4.7428382094949484E-04
(PID.TID 0000.0001) %MON trcstat_ptracer0w_min        =   1.2657726422560245E-08
(PID.TID 0000.0001) %MON trcstat_ptracer0w_mean       =   9.3370738994397753E-07
(PID.TID 0000.0001) %MON trcstat_ptracer0w_sd         =   6.9763371549892526E-06
(PID.TID 0000.0001) %MON trcstat_ptracer0w_del2       =   3.3985439911803426E-08
(PID.TID 0000.0001) %MON trcstat_ptracer0x_max        =   4.7428382094949484E-04
(PID.TID 0000.0001) %MON trcstat_ptracer0x_min        =   1.2657726422560245E-08
(PID.TID 0000.0001) %MON trcstat_ptracer0x_mean       =   9.3370738994397753E-07
(PID.TID 0000.0001) %MON trcstat_ptracer0x_sd         =   6.9763371549892526E-06
(PID.TID 0000.0001) %MON trcstat_ptracer0x_del2       =   3.3985439911803426E-08
(PID.TID 0000.0001) %MON trcstat_ptracer0y_max        =   4.7428382094949484E-04
(PID.TID 0000.0001) %MON trcstat_ptracer0y_min        =   1.2657726422560245E-08
(PID.TID 0000.0001) %MON trcstat_ptracer0y_mean       =   9.3370738994397753E-07
(PID.TID 0000.0001) %MON trcstat_ptracer0y_sd         =   6.9763371549892526E-06
(PID.TID 0000.0001) %MON trcstat_ptracer0y_del2       =   3.3985439911803426E-08
(PID.TID 0000.0001) %MON trcstat_ptracer0z_max        =   4.7428382094949484E-04
(PID.TID 0000.0001) %MON trcstat_ptracer0z_min        =   1.2657726422560245E-08
(PID.TID 0000.0001) %MON trcstat_ptracer0z_mean       =   9.3370738994397753E-07
(PID.TID 0000.0001) %MON trcstat_ptracer0z_sd         =   6.9763371549892526E-06
(PID.TID 0000.0001) %MON trcstat_ptracer0z_del2       =   3.3985439911803426E-08
(PID.TID 0000.0001) %MON trcstat_ptracer0A_max        =   4.7428382094949484E-04
(PID.TID 0000.0001) %MON trcstat_ptracer0A_min        =   1.2657726422560245E-08
(PID.TID 0000.0001) %MON trcstat_ptracer0A_mean       =   9.3370738994397753E-07
(PID.TID 0000.0001) %MON trcstat_ptracer0A_sd         =   6.9763371549892526E-06
(PID.TID 0000.0001) %MON trcstat_ptracer0A_del2       =   3.3985439911803426E-08
(PID.TID 0000.0001) %MON trcstat_ptracer0B_max        =   4.7428382094949484E-04
(PID.TID 0000.0001) %MON trcstat_ptracer0B_min        =   1.2657726422560245E-08
(PID.TID 0000.0001) %MON trcstat_ptracer0B_mean       =   9.3370738994397753E-07
(PID.TID 0000.0001) %MON trcstat_ptracer0B_sd         =   6.9763371549892526E-06
(PID.TID 0000.0001) %MON trcstat_ptracer0B_del2       =   3.3985439911803426E-08
(PID.TID 0000.0001) %MON trcstat_ptracer0C_max        =   2.0924240118347370E-08
(PID.TID 0000.0001) %MON trcstat_ptracer0C_min        =   5.5842786991777693E-13
(PID.TID 0000.0001) %MON trcstat_ptracer0C_mean       =   4.1192881618442488E-11
(PID.TID 0000.0001) %MON trcstat_ptracer0C_sd         =   3.0777889639257188E-10
(PID.TID 0000.0001) %MON trcstat_ptracer0C_del2       =   1.4993543335581515E-12
(PID.TID 0000.0001) %MON trcstat_ptracer0D_max        =   2.0924240118347370E-08
(PID.TID 0000.0001) %MON trcstat_ptracer0D_min        =   5.5842786991777693E-13
(PID.TID 0000.0001) %MON trcstat_ptracer0D_mean       =   4.1192881618442488E-11
(PID.TID 0000.0001) %MON trcstat_ptracer0D_sd         =   3.0777889639257188E-10
(PID.TID 0000.0001) %MON trcstat_ptracer0D_del2       =   1.4993543335581515E-12
(PID.TID 0000.0001) %MON trcstat_ptracer0E_max        =   2.0924240118347370E-08
(PID.TID 0000.0001) %MON trcstat_ptracer0E_min        =   5.5842786991777693E-13
(PID.TID 0000.0001) %MON trcstat_ptracer0E_mean       =   4.1192881618442488E-11
(PID.TID 0000.0001) %MON trcstat_ptracer0E_sd         =   3.0777889639257188E-10
(PID.TID 0000.0001) %MON trcstat_ptracer0E_del2       =   1.4993543335581515E-12
(PID.TID 0000.0001) %MON trcstat_ptracer0F_max        =   2.0924240118347370E-08
(PID.TID 0000.0001) %MON trcstat_ptracer0F_min        =   5.5842786991777693E-13
(PID.TID 0000.0001) %MON trcstat_ptracer0F_mean       =   4.1192881618442488E-11
(PID.TID 0000.0001) %MON trcstat_ptracer0F_sd         =   3.0777889639257188E-10
(PID.TID 0000.0001) %MON trcstat_ptracer0F_del2       =   1.4993543335581515E-12
(PID.TID 0000.0001) %MON trcstat_ptracer0G_max        =   2.0924240118347370E-08
(PID.TID 0000.0001) %MON trcstat_ptracer0G_min        =   5.5842786991777693E-13
(PID.TID 0000.0001) %MON trcstat_ptracer0G_mean       =   4.1192881618442488E-11
(PID.TID 0000.0001) %MON trcstat_ptracer0G_sd         =   3.0777889639257188E-10
(PID.TID 0000.0001) %MON trcstat_ptracer0G_del2       =   1.4993543335581515E-12
(PID.TID 0000.0001) %MON trcstat_ptracer0H_max        =   2.0924240118347370E-08
(PID.TID 0000.0001) %MON trcstat_ptracer0H_min        =   5.5842786991777693E-13
(PID.TID 0000.0001) %MON trcstat_ptracer0H_mean       =   4.1192881618442488E-11
(PID.TID 0000.0001) %MON trcstat_ptracer0H_sd         =   3.0777889639257188E-10
(PID.TID 0000.0001) %MON trcstat_ptracer0H_del2       =   1.4993543335581515E-12
(PID.TID 0000.0001) %MON trcstat_ptracer0I_max        =   2.0924240118347370E-08
(PID.TID 0000.0001) %MON trcstat_ptracer0I_min        =   5.5842786991777693E-13
(PID.TID 0000.0001) %MON trcstat_ptracer0I_mean       =   4.1192881618442488E-11
(PID.TID 0000.0001) %MON trcstat_ptracer0I_sd         =   3.0777889639257188E-10
(PID.TID 0000.0001) %MON trcstat_ptracer0I_del2       =   1.4993543335581515E-12
(PID.TID 0000.0001) %MON trcstat_ptracer0J_max        =   2.0924240118347370E-08
(PID.TID 0000.0001) %MON trcstat_ptracer0J_min        =   5.5842786991777693E-13
(PID.TID 0000.0001) %MON trcstat_ptracer0J_mean       =   4.1192881618442488E-11
(PID.TID 0000.0001) %MON trcstat_ptracer0J_sd         =   3.0777889639257188E-10
(PID.TID 0000.0001) %MON trcstat_ptracer0J_del2       =   1.4993543335581515E-12
(PID.TID 0000.0001) %MON trcstat_ptracer0K_max        =   2.0924240118347370E-08
(PID.TID 0000.0001) %MON trcstat_ptracer0K_min        =   5.5842786991777693E-13
(PID.TID 0000.0001) %MON trcstat_ptracer0K_mean       =   4.1192881618442488E-11
(PID.TID 0000.0001) %MON trcstat_ptracer0K_sd         =   3.0777889639257188E-10
(PID.TID 0000.0001) %MON trcstat_ptracer0K_del2       =   1.4993543335581515E-12
(PID.TID 0000.0001) %MON trcstat_ptracer0L_max        =   2.0924240118347370E-08
(PID.TID 0000.0001) %MON trcstat_ptracer0L_min        =   5.5842786991777693E-13
(PID.TID 0000.0001) %MON trcstat_ptracer0L_mean       =   4.1192881618442488E-11
(PID.TID 0000.0001) %MON trcstat_ptracer0L_sd         =   3.0777889639257188E-10
(PID.TID 0000.0001) %MON trcstat_ptracer0L_del2       =   1.4993543335581515E-12
(PID.TID 0000.0001) %MON trcstat_ptracer0M_max        =   2.0924240118347370E-08
(PID.TID 0000.0001) %MON trcstat_ptracer0M_min        =   5.5842786991777693E-13
(PID.TID 0000.0001) %MON trcstat_ptracer0M_mean       =   4.1192881618442488E-11
(PID.TID 0000.0001) %MON trcstat_ptracer0M_sd         =   3.0777889639257188E-10
(PID.TID 0000.0001) %MON trcstat_ptracer0M_del2       =   1.4993543335581515E-12
(PID.TID 0000.0001) %MON trcstat_ptracer0N_max        =   2.0924240118347370E-08
(PID.TID 0000.0001) %MON trcstat_ptracer0N_min        =   5.5842786991777693E-13
(PID.TID 0000.0001) %MON trcstat_ptracer0N_mean       =   4.1192881618442488E-11
(PID.TID 0000.0001) %MON trcstat_ptracer0N_sd         =   3.0777889639257188E-10
(PID.TID 0000.0001) %MON trcstat_ptracer0N_del2       =   1.4993543335581515E-12
(PID.TID 0000.0001) %MON trcstat_ptracer0O_max        =   2.0924240118347370E-08
(PID.TID 0000.0001) %MON trcstat_ptracer0O_min        =   5.5842786991777693E-13
(PID.TID 0000.0001) %MON trcstat_ptracer0O_mean       =   4.1192881618442488E-11
(PID.TID 0000.0001) %MON trcstat_ptracer0O_sd         =   3.0777889639257188E-10
(PID.TID 0000.0001) %MON trcstat_ptracer0O_del2       =   1.4993543335581515E-12
(PID.TID 0000.0001) %MON trcstat_ptracer0P_max        =   2.0924240118347370E-08
(PID.TID 0000.0001) %MON trcstat_ptracer0P_min        =   5.5842786991777693E-13
(PID.TID 0000.0001) %MON trcstat_ptracer0P_mean       =   4.1192881618442488E-11
(PID.TID 0000.0001) %MON trcstat_ptracer0P_sd         =   3.0777889639257188E-10
(PID.TID 0000.0001) %MON trcstat_ptracer0P_del2       =   1.4993543335581515E-12
(PID.TID 0000.0001) %MON trcstat_ptracer0Q_max        =   2.0924240118347370E-08
(PID.TID 0000.0001) %MON trcstat_ptracer0Q_min        =   5.5842786991777693E-13
(PID.TID 0000.0001) %MON trcstat_ptracer0Q_mean       =   4.1192881618442488E-11
(PID.TID 0000.0001) %MON trcstat_ptracer0Q_sd         =   3.0777889639257188E-10
(PID.TID 0000.0001) %MON trcstat_ptracer0Q_del2       =   1.4993543335581515E-12
(PID.TID 0000.0001) %MON trcstat_ptracer0R_max        =   2.0924240118347370E-08
(PID.TID 0000.0001) %MON trcstat_ptracer0R_min        =   5.5842786991777693E-13
(PID.TID 0000.0001) %MON trcstat_ptracer0R_mean       =   4.1192881618442488E-11
(PID.TID 0000.0001) %MON trcstat_ptracer0R_sd         =   3.0777889639257188E-10
(PID.TID 0000.0001) %MON trcstat_ptracer0R_del2       =   1.4993543335581515E-12
(PID.TID 0000.0001) %MON trcstat_ptracer0S_max        =   2.0924240118347370E-08
(PID.TID 0000.0001) %MON trcstat_ptracer0S_min        =   5.5842786991777693E-13
(PID.TID 0000.0001) %MON trcstat_ptracer0S_mean       =   4.1192881618442488E-11
(PID.TID 0000.0001) %MON trcstat_ptracer0S_sd         =   3.0777889639257188E-10
(PID.TID 0000.0001) %MON trcstat_ptracer0S_del2       =   1.4993543335581515E-12
(PID.TID 0000.0001) %MON trcstat_ptracer0T_max        =   2.0924240118347370E-08
(PID.TID 0000.0001) %MON trcstat_ptracer0T_min        =   5.5842786991777693E-13
(PID.TID 0000.0001) %MON trcstat_ptracer0T_mean       =   4.1192881618442488E-11
(PID.TID 0000.0001) %MON trcstat_ptracer0T_sd         =   3.0777889639257188E-10
(PID.TID 0000.0001) %MON trcstat_ptracer0T_del2       =   1.4993543335581515E-12
(PID.TID 0000.0001) %MON trcstat_ptracer0U_max        =   2.0924240118347370E-08
(PID.TID 0000.0001) %MON trcstat_ptracer0U_min        =   5.5842786991777693E-13
(PID.TID 0000.0001) %MON trcstat_ptracer0U_mean       =   4.1192881618442488E-11
(PID.TID 0000.0001) %MON trcstat_ptracer0U_sd         =   3.0777889639257188E-10
(PID.TID 0000.0001) %MON trcstat_ptracer0U_del2       =   1.4993543335581515E-12
(PID.TID 0000.0001) %MON trcstat_ptracer0V_max        =   2.0924240118347370E-08
(PID.TID 0000.0001) %MON trcstat_ptracer0V_min        =   5.5842786991777693E-13
(PID.TID 0000.0001) %MON trcstat_ptracer0V_mean       =   4.1192881618442488E-11
(PID.TID 0000.0001) %MON trcstat_ptracer0V_sd         =   3.0777889639257188E-10
(PID.TID 0000.0001) %MON trcstat_ptracer0V_del2       =   1.4993543335581515E-12
(PID.TID 0000.0001) %MON trcstat_ptracer0W_max        =   2.0924240118347370E-08
(PID.TID 0000.0001) %MON trcstat_ptracer0W_min        =   5.5842786991777693E-13
(PID.TID 0000.0001) %MON trcstat_ptracer0W_mean       =   4.1192881618442488E-11
(PID.TID 0000.0001) %MON trcstat_ptracer0W_sd         =   3.0777889639257188E-10
(PID.TID 0000.0001) %MON trcstat_ptracer0W_del2       =   1.4993543335581515E-12
(PID.TID 0000.0001) %MON trcstat_ptracer0X_max        =   2.0924240118347370E-08
(PID.TID 0000.0001) %MON trcstat_ptracer0X_min        =   5.5842786991777693E-13
(PID.TID 0000.0001) %MON trcstat_ptracer0X_mean       =   4.1192881618442488E-11
(PID.TID 0000.0001) %MON trcstat_ptracer0X_sd         =   3.0777889639257188E-10
(PID.TID 0000.0001) %MON trcstat_ptracer0X_del2       =   1.4993543335581515E-12
(PID.TID 0000.0001) %MON trcstat_ptracer0Y_max        =   2.0924240118347370E-08
(PID.TID 0000.0001) %MON trcstat_ptracer0Y_min        =   5.5842786991777693E-13
(PID.TID 0000.0001) %MON trcstat_ptracer0Y_mean       =   4.1192881618442488E-11
(PID.TID 0000.0001) %MON trcstat_ptracer0Y_sd         =   3.0777889639257188E-10
(PID.TID 0000.0001) %MON trcstat_ptracer0Y_del2       =   1.4993543335581515E-12
(PID.TID 0000.0001) %MON trcstat_ptracer0Z_max        =   2.0924240118347370E-08
(PID.TID 0000.0001) %MON trcstat_ptracer0Z_min        =   5.5842786991777693E-13
(PID.TID 0000.0001) %MON trcstat_ptracer0Z_mean       =   4.1192881618442488E-11
(PID.TID 0000.0001) %MON trcstat_ptracer0Z_sd         =   3.0777889639257188E-10
(PID.TID 0000.0001) %MON trcstat_ptracer0Z_del2       =   1.4993543335581515E-12
(PID.TID 0000.0001) %MON trcstat_ptracer1a_max        =   2.0924240118347370E-08
(PID.TID 0000.0001) %MON trcstat_ptracer1a_min        =   5.5842786991777693E-13
(PID.TID 0000.0001) %MON trcstat_ptracer1a_mean       =   4.1192881618442488E-11
(PID.TID 0000.0001) %MON trcstat_ptracer1a_sd         =   3.0777889639257188E-10
(PID.TID 0000.0001) %MON trcstat_ptracer1a_del2       =   1.4993543335581515E-12
(PID.TID 0000.0001) %MON trcstat_ptracer1b_max        =   2.0924240118347370E-08
(PID.TID 0000.0001) %MON trcstat_ptracer1b_min        =   5.5842786991777693E-13
(PID.TID 0000.0001) %MON trcstat_ptracer1b_mean       =   4.1192881618442488E-11
(PID.TID 0000.0001) %MON trcstat_ptracer1b_sd         =   3.0777889639257188E-10
(PID.TID 0000.0001) %MON trcstat_ptracer1b_del2       =   1.4993543335581515E-12
(PID.TID 0000.0001) %MON trcstat_ptracer1c_max        =   2.0924240118347370E-08
(PID.TID 0000.0001) %MON trcstat_ptracer1c_min        =   5.5842786991777693E-13
(PID.TID 0000.0001) %MON trcstat_ptracer1c_mean       =   4.1192881618442488E-11
(PID.TID 0000.0001) %MON trcstat_ptracer1c_sd         =   3.0777889639257188E-10
(PID.TID 0000.0001) %MON trcstat_ptracer1c_del2       =   1.4993543335581515E-12
(PID.TID 0000.0001) %MON trcstat_ptracer1d_max        =   2.0924240118347370E-08
(PID.TID 0000.0001) %MON trcstat_ptracer1d_min        =   5.5842786991777693E-13
(PID.TID 0000.0001) %MON trcstat_ptracer1d_mean       =   4.1192881618442488E-11
(PID.TID 0000.0001) %MON trcstat_ptracer1d_sd         =   3.0777889639257188E-10
(PID.TID 0000.0001) %MON trcstat_ptracer1d_del2       =   1.4993543335581515E-12
(PID.TID 0000.0001) %MON trcstat_ptracer1e_max        =   2.0924240118347370E-08
(PID.TID 0000.0001) %MON trcstat_ptracer1e_min        =   5.5842786991777693E-13
(PID.TID 0000.0001) %MON trcstat_ptracer1e_mean       =   4.1192881618442488E-11
(PID.TID 0000.0001) %MON trcstat_ptracer1e_sd         =   3.0777889639257188E-10
(PID.TID 0000.0001) %MON trcstat_ptracer1e_del2       =   1.4993543335581515E-12
(PID.TID 0000.0001) %MON trcstat_ptracer1f_max        =   2.0924240118347370E-08
(PID.TID 0000.0001) %MON trcstat_ptracer1f_min        =   5.5842786991777693E-13
(PID.TID 0000.0001) %MON trcstat_ptracer1f_mean       =   4.1192881618442488E-11
(PID.TID 0000.0001) %MON trcstat_ptracer1f_sd         =   3.0777889639257188E-10
(PID.TID 0000.0001) %MON trcstat_ptracer1f_del2       =   1.4993543335581515E-12
(PID.TID 0000.0001) %MON trcstat_ptracer1g_max        =   2.0924240118347370E-08
(PID.TID 0000.0001) %MON trcstat_ptracer1g_min        =   5.5842786991777693E-13
(PID.TID 0000.0001) %MON trcstat_ptracer1g_mean       =   4.1192881618442488E-11
(PID.TID 0000.0001) %MON trcstat_ptracer1g_sd         =   3.0777889639257188E-10
(PID.TID 0000.0001) %MON trcstat_ptracer1g_del2       =   1.4993543335581515E-12
(PID.TID 0000.0001) %MON trcstat_ptracer1h_max        =   2.0924240118347370E-08
(PID.TID 0000.0001) %MON trcstat_ptracer1h_min        =   5.5842786991777693E-13
(PID.TID 0000.0001) %MON trcstat_ptracer1h_mean       =   4.1192881618442488E-11
(PID.TID 0000.0001) %MON trcstat_ptracer1h_sd         =   3.0777889639257188E-10
(PID.TID 0000.0001) %MON trcstat_ptracer1h_del2       =   1.4993543335581515E-12
(PID.TID 0000.0001) %MON trcstat_ptracer1i_max        =   2.0924240118347370E-08
(PID.TID 0000.0001) %MON trcstat_ptracer1i_min        =   5.5842786991777693E-13
(PID.TID 0000.0001) %MON trcstat_ptracer1i_mean       =   4.1192881618442488E-11
(PID.TID 0000.0001) %MON trcstat_ptracer1i_sd         =   3.0777889639257188E-10
(PID.TID 0000.0001) %MON trcstat_ptracer1i_del2       =   1.4993543335581515E-12
(PID.TID 0000.0001) %MON trcstat_ptracer1j_max        =   2.0924240118347370E-08
(PID.TID 0000.0001) %MON trcstat_ptracer1j_min        =   5.5842786991777693E-13
(PID.TID 0000.0001) %MON trcstat_ptracer1j_mean       =   4.1192881618442488E-11
(PID.TID 0000.0001) %MON trcstat_ptracer1j_sd         =   3.0777889639257188E-10
(PID.TID 0000.0001) %MON trcstat_ptracer1j_del2       =   1.4993543335581515E-12
(PID.TID 0000.0001) %MON trcstat_ptracer1k_max        =   2.0924240118347370E-08
(PID.TID 0000.0001) %MON trcstat_ptracer1k_min        =   5.5842786991777693E-13
(PID.TID 0000.0001) %MON trcstat_ptracer1k_mean       =   4.1192881618442488E-11
(PID.TID 0000.0001) %MON trcstat_ptracer1k_sd         =   3.0777889639257188E-10
(PID.TID 0000.0001) %MON trcstat_ptracer1k_del2       =   1.4993543335581515E-12
(PID.TID 0000.0001) %MON trcstat_ptracer1l_max        =   2.0924240118347370E-08
(PID.TID 0000.0001) %MON trcstat_ptracer1l_min        =   5.5842786991777693E-13
(PID.TID 0000.0001) %MON trcstat_ptracer1l_mean       =   4.1192881618442488E-11
(PID.TID 0000.0001) %MON trcstat_ptracer1l_sd         =   3.0777889639257188E-10
(PID.TID 0000.0001) %MON trcstat_ptracer1l_del2       =   1.4993543335581515E-12
(PID.TID 0000.0001) %MON trcstat_ptracer1m_max        =   2.0924240118347370E-08
(PID.TID 0000.0001) %MON trcstat_ptracer1m_min        =   5.5842786991777693E-13
(PID.TID 0000.0001) %MON trcstat_ptracer1m_mean       =   4.1192881618442488E-11
(PID.TID 0000.0001) %MON trcstat_ptracer1m_sd         =   3.0777889639257188E-10
(PID.TID 0000.0001) %MON trcstat_ptracer1m_del2       =   1.4993543335581515E-12
(PID.TID 0000.0001) %MON trcstat_ptracer1n_max        =   2.0924240118347370E-08
(PID.TID 0000.0001) %MON trcstat_ptracer1n_min        =   5.5842786991777693E-13
(PID.TID 0000.0001) %MON trcstat_ptracer1n_mean       =   4.1192881618442488E-11
(PID.TID 0000.0001) %MON trcstat_ptracer1n_sd         =   3.0777889639257188E-10
(PID.TID 0000.0001) %MON trcstat_ptracer1n_del2       =   1.4993543335581515E-12
(PID.TID 0000.0001) %MON trcstat_ptracer1o_max        =   2.0924240118347370E-08
(PID.TID 0000.0001) %MON trcstat_ptracer1o_min        =   5.5842786991777693E-13
(PID.TID 0000.0001) %MON trcstat_ptracer1o_mean       =   4.1192881618442488E-11
(PID.TID 0000.0001) %MON trcstat_ptracer1o_sd         =   3.0777889639257188E-10
(PID.TID 0000.0001) %MON trcstat_ptracer1o_del2       =   1.4993543335581515E-12
(PID.TID 0000.0001) %MON trcstat_ptracer1p_max        =   2.0924240118347370E-08
(PID.TID 0000.0001) %MON trcstat_ptracer1p_min        =   5.5842786991777693E-13
(PID.TID 0000.0001) %MON trcstat_ptracer1p_mean       =   4.1192881618442488E-11
(PID.TID 0000.0001) %MON trcstat_ptracer1p_sd         =   3.0777889639257188E-10
(PID.TID 0000.0001) %MON trcstat_ptracer1p_del2       =   1.4993543335581515E-12
(PID.TID 0000.0001) %MON trcstat_ptracer1q_max        =   2.0924240118347370E-08
(PID.TID 0000.0001) %MON trcstat_ptracer1q_min        =   5.5842786991777693E-13
(PID.TID 0000.0001) %MON trcstat_ptracer1q_mean       =   4.1192881618442488E-11
(PID.TID 0000.0001) %MON trcstat_ptracer1q_sd         =   3.0777889639257188E-10
(PID.TID 0000.0001) %MON trcstat_ptracer1q_del2       =   1.4993543335581515E-12
(PID.TID 0000.0001) %MON trcstat_ptracer1r_max        =   2.0924240118347370E-08
(PID.TID 0000.0001) %MON trcstat_ptracer1r_min        =   5.5842786991777693E-13
(PID.TID 0000.0001) %MON trcstat_ptracer1r_mean       =   4.1192881618442488E-11
(PID.TID 0000.0001) %MON trcstat_ptracer1r_sd         =   3.0777889639257188E-10
(PID.TID 0000.0001) %MON trcstat_ptracer1r_del2       =   1.4993543335581515E-12
(PID.TID 0000.0001) %MON trcstat_ptracer1s_max        =   2.0924240118347370E-08
(PID.TID 0000.0001) %MON trcstat_ptracer1s_min        =   5.5842786991777693E-13
(PID.TID 0000.0001) %MON trcstat_ptracer1s_mean       =   4.1192881618442488E-11
(PID.TID 0000.0001) %MON trcstat_ptracer1s_sd         =   3.0777889639257188E-10
(PID.TID 0000.0001) %MON trcstat_ptracer1s_del2       =   1.4993543335581515E-12
(PID.TID 0000.0001) %MON trcstat_ptracer1t_max        =   2.0924240118347370E-08
(PID.TID 0000.0001) %MON trcstat_ptracer1t_min        =   5.5842786991777693E-13
(PID.TID 0000.0001) %MON trcstat_ptracer1t_mean       =   4.1192881618442488E-11
(PID.TID 0000.0001) %MON trcstat_ptracer1t_sd         =   3.0777889639257188E-10
(PID.TID 0000.0001) %MON trcstat_ptracer1t_del2       =   1.4993543335581515E-12
(PID.TID 0000.0001) %MON trcstat_ptracer1u_max        =   2.0924240118347370E-08
(PID.TID 0000.0001) %MON trcstat_ptracer1u_min        =   5.5842786991777693E-13
(PID.TID 0000.0001) %MON trcstat_ptracer1u_mean       =   4.1192881618442488E-11
(PID.TID 0000.0001) %MON trcstat_ptracer1u_sd         =   3.0777889639257188E-10
(PID.TID 0000.0001) %MON trcstat_ptracer1u_del2       =   1.4993543335581515E-12
(PID.TID 0000.0001) %MON trcstat_ptracer1v_max        =   2.0924240118347370E-08
(PID.TID 0000.0001) %MON trcstat_ptracer1v_min        =   5.5842786991777693E-13
(PID.TID 0000.0001) %MON trcstat_ptracer1v_mean       =   4.1192881618442488E-11
(PID.TID 0000.0001) %MON trcstat_ptracer1v_sd         =   3.0777889639257188E-10
(PID.TID 0000.0001) %MON trcstat_ptracer1v_del2       =   1.4993543335581515E-12
(PID.TID 0000.0001) %MON trcstat_ptracer1w_max        =   2.0924240118347370E-08
(PID.TID 0000.0001) %MON trcstat_ptracer1w_min        =   5.5842786991777693E-13
(PID.TID 0000.0001) %MON trcstat_ptracer1w_mean       =   4.1192881618442488E-11
(PID.TID 0000.0001) %MON trcstat_ptracer1w_sd         =   3.0777889639257188E-10
(PID.TID 0000.0001) %MON trcstat_ptracer1w_del2       =   1.4993543335581515E-12
(PID.TID 0000.0001) %MON trcstat_ptracer1x_max        =   2.0924240118347370E-08
(PID.TID 0000.0001) %MON trcstat_ptracer1x_min        =   5.5842786991777693E-13
(PID.TID 0000.0001) %MON trcstat_ptracer1x_mean       =   4.1192881618442488E-11
(PID.TID 0000.0001) %MON trcstat_ptracer1x_sd         =   3.0777889639257188E-10
(PID.TID 0000.0001) %MON trcstat_ptracer1x_del2       =   1.4993543335581515E-12
(PID.TID 0000.0001) %MON trcstat_ptracer1y_max        =   2.0924240118347370E-08
(PID.TID 0000.0001) %MON trcstat_ptracer1y_min        =   5.5842786991777693E-13
(PID.TID 0000.0001) %MON trcstat_ptracer1y_mean       =   4.1192881618442488E-11
(PID.TID 0000.0001) %MON trcstat_ptracer1y_sd         =   3.0777889639257188E-10
(PID.TID 0000.0001) %MON trcstat_ptracer1y_del2       =   1.4993543335581515E-12
(PID.TID 0000.0001) %MON trcstat_ptracer1z_max        =   2.0924240118347370E-08
(PID.TID 0000.0001) %MON trcstat_ptracer1z_min        =   5.5842786991777693E-13
(PID.TID 0000.0001) %MON trcstat_ptracer1z_mean       =   4.1192881618442488E-11
(PID.TID 0000.0001) %MON trcstat_ptracer1z_sd         =   3.0777889639257188E-10
(PID.TID 0000.0001) %MON trcstat_ptracer1z_del2       =   1.4993543335581515E-12
(PID.TID 0000.0001) %MON trcstat_ptracer1A_max        =   2.0924240118347370E-08
(PID.TID 0000.0001) %MON trcstat_ptracer1A_min        =   5.5842786991777693E-13
(PID.TID 0000.0001) %MON trcstat_ptracer1A_mean       =   4.1192881618442488E-11
(PID.TID 0000.0001) %MON trcstat_ptracer1A_sd         =   3.0777889639257188E-10
(PID.TID 0000.0001) %MON trcstat_ptracer1A_del2       =   1.4993543335581515E-12
(PID.TID 0000.0001) %MON trcstat_ptracer1B_max        =   2.0924240118347370E-08
(PID.TID 0000.0001) %MON trcstat_ptracer1B_min        =   5.5842786991777693E-13
(PID.TID 0000.0001) %MON trcstat_ptracer1B_mean       =   4.1192881618442488E-11
(PID.TID 0000.0001) %MON trcstat_ptracer1B_sd         =   3.0777889639257188E-10
(PID.TID 0000.0001) %MON trcstat_ptracer1B_del2       =   1.4993543335581515E-12
(PID.TID 0000.0001) %MON trcstat_ptracer1C_max        =   2.0924240118347370E-08
(PID.TID 0000.0001) %MON trcstat_ptracer1C_min        =   5.5842786991777693E-13
(PID.TID 0000.0001) %MON trcstat_ptracer1C_mean       =   4.1192881618442488E-11
(PID.TID 0000.0001) %MON trcstat_ptracer1C_sd         =   3.0777889639257188E-10
(PID.TID 0000.0001) %MON trcstat_ptracer1C_del2       =   1.4993543335581515E-12
(PID.TID 0000.0001) %MON trcstat_ptracer1D_max        =   2.0924240118347370E-08
(PID.TID 0000.0001) %MON trcstat_ptracer1D_min        =   5.5842786991777693E-13
(PID.TID 0000.0001) %MON trcstat_ptracer1D_mean       =   4.1192881618442488E-11
(PID.TID 0000.0001) %MON trcstat_ptracer1D_sd         =   3.0777889639257188E-10
(PID.TID 0000.0001) %MON trcstat_ptracer1D_del2       =   1.4993543335581515E-12
(PID.TID 0000.0001) %MON trcstat_ptracer1E_max        =   2.0924240118347370E-08
(PID.TID 0000.0001) %MON trcstat_ptracer1E_min        =   5.5842786991777693E-13
(PID.TID 0000.0001) %MON trcstat_ptracer1E_mean       =   4.1192881618442488E-11
(PID.TID 0000.0001) %MON trcstat_ptracer1E_sd         =   3.0777889639257188E-10
(PID.TID 0000.0001) %MON trcstat_ptracer1E_del2       =   1.4993543335581515E-12
(PID.TID 0000.0001) %MON trcstat_ptracer1F_max        =   4.9959872849285603E-03
(PID.TID 0000.0001) %MON trcstat_ptracer1F_min        =   1.3333333015452808E-07
(PID.TID 0000.0001) %MON trcstat_ptracer1F_mean       =   9.8354402242644565E-06
(PID.TID 0000.0001) %MON trcstat_ptracer1F_sd         =   7.3486991364048979E-05
(PID.TID 0000.0001) %MON trcstat_ptracer1F_del2       =   3.5799413313030856E-07
(PID.TID 0000.0001) %MON trcstat_ptracer1G_max        =   4.9959872849285603E-03
(PID.TID 0000.0001) %MON trcstat_ptracer1G_min        =   1.3333333015452808E-07
(PID.TID 0000.0001) %MON trcstat_ptracer1G_mean       =   9.8354402242644565E-06
(PID.TID 0000.0001) %MON trcstat_ptracer1G_sd         =   7.3486991364048979E-05
(PID.TID 0000.0001) %MON trcstat_ptracer1G_del2       =   3.5799413313030856E-07
(PID.TID 0000.0001) %MON trcstat_ptracer1H_max        =   4.9959872849285603E-03
(PID.TID 0000.0001) %MON trcstat_ptracer1H_min        =   1.3333333015452808E-07
(PID.TID 0000.0001) %MON trcstat_ptracer1H_mean       =   9.8354402242644565E-06
(PID.TID 0000.0001) %MON trcstat_ptracer1H_sd         =   7.3486991364048979E-05
(PID.TID 0000.0001) %MON trcstat_ptracer1H_del2       =   3.5799413313030856E-07
(PID.TID 0000.0001) %MON trcstat_ptracer1I_max        =   4.9959872849285603E-03
(PID.TID 0000.0001) %MON trcstat_ptracer1I_min        =   1.3333333015452808E-07
(PID.TID 0000.0001) %MON trcstat_ptracer1I_mean       =   9.8354402242644565E-06
(PID.TID 0000.0001) %MON trcstat_ptracer1I_sd         =   7.3486991364048979E-05
(PID.TID 0000.0001) %MON trcstat_ptracer1I_del2       =   3.5799413313030856E-07
(PID.TID 0000.0001) %MON trcstat_ptracer1J_max        =   4.9959872849285603E-03
(PID.TID 0000.0001) %MON trcstat_ptracer1J_min        =   1.3333333015452808E-07
(PID.TID 0000.0001) %MON trcstat_ptracer1J_mean       =   9.8354402242644565E-06
(PID.TID 0000.0001) %MON trcstat_ptracer1J_sd         =   7.3486991364048979E-05
(PID.TID 0000.0001) %MON trcstat_ptracer1J_del2       =   3.5799413313030856E-07
(PID.TID 0000.0001) %MON trcstat_ptracer1K_max        =   4.9959872849285603E-03
(PID.TID 0000.0001) %MON trcstat_ptracer1K_min        =   1.3333333015452808E-07
(PID.TID 0000.0001) %MON trcstat_ptracer1K_mean       =   9.8354402242644565E-06
(PID.TID 0000.0001) %MON trcstat_ptracer1K_sd         =   7.3486991364048979E-05
(PID.TID 0000.0001) %MON trcstat_ptracer1K_del2       =   3.5799413313030856E-07
(PID.TID 0000.0001) %MON trcstat_ptracer1L_max        =   4.9959872849285603E-03
(PID.TID 0000.0001) %MON trcstat_ptracer1L_min        =   1.3333333015452808E-07
(PID.TID 0000.0001) %MON trcstat_ptracer1L_mean       =   9.8354402242644565E-06
(PID.TID 0000.0001) %MON trcstat_ptracer1L_sd         =   7.3486991364048979E-05
(PID.TID 0000.0001) %MON trcstat_ptracer1L_del2       =   3.5799413313030856E-07
(PID.TID 0000.0001) %MON trcstat_ptracer1M_max        =   4.9959872849285603E-03
(PID.TID 0000.0001) %MON trcstat_ptracer1M_min        =   1.3333333015452808E-07
(PID.TID 0000.0001) %MON trcstat_ptracer1M_mean       =   9.8354402242644565E-06
(PID.TID 0000.0001) %MON trcstat_ptracer1M_sd         =   7.3486991364048979E-05
(PID.TID 0000.0001) %MON trcstat_ptracer1M_del2       =   3.5799413313030856E-07
(PID.TID 0000.0001) %MON trcstat_ptracer1N_max        =   4.9959872849285603E-03
(PID.TID 0000.0001) %MON trcstat_ptracer1N_min        =   1.3333333015452808E-07
(PID.TID 0000.0001) %MON trcstat_ptracer1N_mean       =   9.8354402242644565E-06
(PID.TID 0000.0001) %MON trcstat_ptracer1N_sd         =   7.3486991364048979E-05
(PID.TID 0000.0001) %MON trcstat_ptracer1N_del2       =   3.5799413313030856E-07
(PID.TID 0000.0001) %MON trcstat_ptracer1O_max        =   4.9959872849285603E-03
(PID.TID 0000.0001) %MON trcstat_ptracer1O_min        =   1.3333333015452808E-07
(PID.TID 0000.0001) %MON trcstat_ptracer1O_mean       =   9.8354402242644565E-06
(PID.TID 0000.0001) %MON trcstat_ptracer1O_sd         =   7.3486991364048979E-05
(PID.TID 0000.0001) %MON trcstat_ptracer1O_del2       =   3.5799413313030856E-07
(PID.TID 0000.0001) %MON trcstat_ptracer1P_max        =   4.9959872849285603E-03
(PID.TID 0000.0001) %MON trcstat_ptracer1P_min        =   1.3333333015452808E-07
(PID.TID 0000.0001) %MON trcstat_ptracer1P_mean       =   9.8354402242644565E-06
(PID.TID 0000.0001) %MON trcstat_ptracer1P_sd         =   7.3486991364048979E-05
(PID.TID 0000.0001) %MON trcstat_ptracer1P_del2       =   3.5799413313030856E-07
(PID.TID 0000.0001) %MON trcstat_ptracer1Q_max        =   4.9959872849285603E-03
(PID.TID 0000.0001) %MON trcstat_ptracer1Q_min        =   1.3333333015452808E-07
(PID.TID 0000.0001) %MON trcstat_ptracer1Q_mean       =   9.8354402242644565E-06
(PID.TID 0000.0001) %MON trcstat_ptracer1Q_sd         =   7.3486991364048979E-05
(PID.TID 0000.0001) %MON trcstat_ptracer1Q_del2       =   3.5799413313030856E-07
(PID.TID 0000.0001) %MON trcstat_ptracer1R_max        =   4.9959872849285603E-03
(PID.TID 0000.0001) %MON trcstat_ptracer1R_min        =   1.3333333015452808E-07
(PID.TID 0000.0001) %MON trcstat_ptracer1R_mean       =   9.8354402242644565E-06
(PID.TID 0000.0001) %MON trcstat_ptracer1R_sd         =   7.3486991364048979E-05
(PID.TID 0000.0001) %MON trcstat_ptracer1R_del2       =   3.5799413313030856E-07
(PID.TID 0000.0001) %MON trcstat_ptracer1S_max        =   4.9959872849285603E-03
(PID.TID 0000.0001) %MON trcstat_ptracer1S_min        =   1.3333333015452808E-07
(PID.TID 0000.0001) %MON trcstat_ptracer1S_mean       =   9.8354402242644565E-06
(PID.TID 0000.0001) %MON trcstat_ptracer1S_sd         =   7.3486991364048979E-05
(PID.TID 0000.0001) %MON trcstat_ptracer1S_del2       =   3.5799413313030856E-07
(PID.TID 0000.0001) %MON trcstat_ptracer1T_max        =   4.9959872849285603E-03
(PID.TID 0000.0001) %MON trcstat_ptracer1T_min        =   1.3333333015452808E-07
(PID.TID 0000.0001) %MON trcstat_ptracer1T_mean       =   9.8354402242644565E-06
(PID.TID 0000.0001) %MON trcstat_ptracer1T_sd         =   7.3486991364048979E-05
(PID.TID 0000.0001) %MON trcstat_ptracer1T_del2       =   3.5799413313030856E-07
(PID.TID 0000.0001) %MON trcstat_ptracer1U_max        =   4.9959872849285603E-03
(PID.TID 0000.0001) %MON trcstat_ptracer1U_min        =   1.3333333015452808E-07
(PID.TID 0000.0001) %MON trcstat_ptracer1U_mean       =   9.8354402242644565E-06
(PID.TID 0000.0001) %MON trcstat_ptracer1U_sd         =   7.3486991364048979E-05
(PID.TID 0000.0001) %MON trcstat_ptracer1U_del2       =   3.5799413313030856E-07
(PID.TID 0000.0001) %MON trcstat_ptracer1V_max        =   4.9959872849285603E-03
(PID.TID 0000.0001) %MON trcstat_ptracer1V_min        =   1.3333333015452808E-07
(PID.TID 0000.0001) %MON trcstat_ptracer1V_mean       =   9.8354402242644565E-06
(PID.TID 0000.0001) %MON trcstat_ptracer1V_sd         =   7.3486991364048979E-05
(PID.TID 0000.0001) %MON trcstat_ptracer1V_del2       =   3.5799413313030856E-07
(PID.TID 0000.0001) %MON trcstat_ptracer1W_max        =   4.9959872849285603E-03
(PID.TID 0000.0001) %MON trcstat_ptracer1W_min        =   1.3333333015452808E-07
(PID.TID 0000.0001) %MON trcstat_ptracer1W_mean       =   9.8354402242644565E-06
(PID.TID 0000.0001) %MON trcstat_ptracer1W_sd         =   7.3486991364048979E-05
(PID.TID 0000.0001) %MON trcstat_ptracer1W_del2       =   3.5799413313030856E-07
(PID.TID 0000.0001) %MON trcstat_ptracer1X_max        =   4.9959872849285603E-03
(PID.TID 0000.0001) %MON trcstat_ptracer1X_min        =   1.3333333015452808E-07
(PID.TID 0000.0001) %MON trcstat_ptracer1X_mean       =   9.8354402242644565E-06
(PID.TID 0000.0001) %MON trcstat_ptracer1X_sd         =   7.3486991364048979E-05
(PID.TID 0000.0001) %MON trcstat_ptracer1X_del2       =   3.5799413313030856E-07
(PID.TID 0000.0001) %MON trcstat_ptracer1Y_max        =   4.9959872849285603E-03
(PID.TID 0000.0001) %MON trcstat_ptracer1Y_min        =   1.3333333015452808E-07
(PID.TID 0000.0001) %MON trcstat_ptracer1Y_mean       =   9.8354402242644565E-06
(PID.TID 0000.0001) %MON trcstat_ptracer1Y_sd         =   7.3486991364048979E-05
(PID.TID 0000.0001) %MON trcstat_ptracer1Y_del2       =   3.5799413313030856E-07
(PID.TID 0000.0001) %MON trcstat_ptracer1Z_max        =   4.9959872849285603E-03
(PID.TID 0000.0001) %MON trcstat_ptracer1Z_min        =   1.3333333015452808E-07
(PID.TID 0000.0001) %MON trcstat_ptracer1Z_mean       =   9.8354402242644565E-06
(PID.TID 0000.0001) %MON trcstat_ptracer1Z_sd         =   7.3486991364048979E-05
(PID.TID 0000.0001) %MON trcstat_ptracer1Z_del2       =   3.5799413313030856E-07
(PID.TID 0000.0001) %MON trcstat_ptracer2a_max        =   4.9959872849285603E-03
(PID.TID 0000.0001) %MON trcstat_ptracer2a_min        =   1.3333333015452808E-07
(PID.TID 0000.0001) %MON trcstat_ptracer2a_mean       =   9.8354402242644565E-06
(PID.TID 0000.0001) %MON trcstat_ptracer2a_sd         =   7.3486991364048979E-05
(PID.TID 0000.0001) %MON trcstat_ptracer2a_del2       =   3.5799413313030856E-07
(PID.TID 0000.0001) %MON trcstat_ptracer2b_max        =   4.9959872849285603E-03
(PID.TID 0000.0001) %MON trcstat_ptracer2b_min        =   1.3333333015452808E-07
(PID.TID 0000.0001) %MON trcstat_ptracer2b_mean       =   9.8354402242644565E-06
(PID.TID 0000.0001) %MON trcstat_ptracer2b_sd         =   7.3486991364048979E-05
(PID.TID 0000.0001) %MON trcstat_ptracer2b_del2       =   3.5799413313030856E-07
(PID.TID 0000.0001) %MON trcstat_ptracer2c_max        =   4.9959872849285603E-03
(PID.TID 0000.0001) %MON trcstat_ptracer2c_min        =   1.3333333015452808E-07
(PID.TID 0000.0001) %MON trcstat_ptracer2c_mean       =   9.8354402242644565E-06
(PID.TID 0000.0001) %MON trcstat_ptracer2c_sd         =   7.3486991364048979E-05
(PID.TID 0000.0001) %MON trcstat_ptracer2c_del2       =   3.5799413313030856E-07
(PID.TID 0000.0001) %MON trcstat_ptracer2d_max        =   4.9959872849285603E-03
(PID.TID 0000.0001) %MON trcstat_ptracer2d_min        =   1.3333333015452808E-07
(PID.TID 0000.0001) %MON trcstat_ptracer2d_mean       =   9.8354402242644565E-06
(PID.TID 0000.0001) %MON trcstat_ptracer2d_sd         =   7.3486991364048979E-05
(PID.TID 0000.0001) %MON trcstat_ptracer2d_del2       =   3.5799413313030856E-07
(PID.TID 0000.0001) // =======================================================
(PID.TID 0000.0001) // End MONITOR ptracers field statistics
(PID.TID 0000.0001) // =======================================================
(PID.TID 0000.0001) // =======================================================
(PID.TID 0000.0001) // Begin MONITOR EXF statistics
(PID.TID 0000.0001) // =======================================================
(PID.TID 0000.0001) %MON exf_tsnumber                 =               5644800
(PID.TID 0000.0001) %MON exf_time_sec                 =   2.4385536000000000E+11
(PID.TID 0000.0001) %MON exf_ustress_max              =   0.0000000000000000E+00
(PID.TID 0000.0001) %MON exf_ustress_min              =   0.0000000000000000E+00
(PID.TID 0000.0001) %MON exf_ustress_mean             =   0.0000000000000000E+00
(PID.TID 0000.0001) %MON exf_ustress_sd               =   0.0000000000000000E+00
(PID.TID 0000.0001) %MON exf_ustress_del2             =   0.0000000000000000E+00
(PID.TID 0000.0001) %MON exf_vstress_max              =   0.0000000000000000E+00
(PID.TID 0000.0001) %MON exf_vstress_min              =   0.0000000000000000E+00
(PID.TID 0000.0001) %MON exf_vstress_mean             =   0.0000000000000000E+00
(PID.TID 0000.0001) %MON exf_vstress_sd               =   0.0000000000000000E+00
(PID.TID 0000.0001) %MON exf_vstress_del2             =   0.0000000000000000E+00
(PID.TID 0000.0001) %MON exf_hflux_max                =   0.0000000000000000E+00
(PID.TID 0000.0001) %MON exf_hflux_min                =   0.0000000000000000E+00
(PID.TID 0000.0001) %MON exf_hflux_mean               =   0.0000000000000000E+00
(PID.TID 0000.0001) %MON exf_hflux_sd                 =   0.0000000000000000E+00
(PID.TID 0000.0001) %MON exf_hflux_del2               =   0.0000000000000000E+00
(PID.TID 0000.0001) %MON exf_sflux_max                =   0.0000000000000000E+00
(PID.TID 0000.0001) %MON exf_sflux_min                =   0.0000000000000000E+00
(PID.TID 0000.0001) %MON exf_sflux_mean               =   0.0000000000000000E+00
(PID.TID 0000.0001) %MON exf_sflux_sd                 =   0.0000000000000000E+00
(PID.TID 0000.0001) %MON exf_sflux_del2               =   0.0000000000000000E+00
(PID.TID 0000.0001) %MON exf_uwind_max                =   0.0000000000000000E+00
(PID.TID 0000.0001) %MON exf_uwind_min                =   0.0000000000000000E+00
(PID.TID 0000.0001) %MON exf_uwind_mean               =   0.0000000000000000E+00
(PID.TID 0000.0001) %MON exf_uwind_sd                 =   0.0000000000000000E+00
(PID.TID 0000.0001) %MON exf_uwind_del2               =   0.0000000000000000E+00
(PID.TID 0000.0001) %MON exf_vwind_max                =   0.0000000000000000E+00
(PID.TID 0000.0001) %MON exf_vwind_min                =   0.0000000000000000E+00
(PID.TID 0000.0001) %MON exf_vwind_mean               =   0.0000000000000000E+00
(PID.TID 0000.0001) %MON exf_vwind_sd                 =   0.0000000000000000E+00
(PID.TID 0000.0001) %MON exf_vwind_del2               =   0.0000000000000000E+00
(PID.TID 0000.0001) %MON exf_wspeed_max               =   0.0000000000000000E+00
(PID.TID 0000.0001) %MON exf_wspeed_min               =   0.0000000000000000E+00
(PID.TID 0000.0001) %MON exf_wspeed_mean              =   0.0000000000000000E+00
(PID.TID 0000.0001) %MON exf_wspeed_sd                =   0.0000000000000000E+00
(PID.TID 0000.0001) %MON exf_wspeed_del2              =   0.0000000000000000E+00
(PID.TID 0000.0001) %MON exf_evap_max                 =   0.0000000000000000E+00
(PID.TID 0000.0001) %MON exf_evap_min                 =   0.0000000000000000E+00
(PID.TID 0000.0001) %MON exf_evap_mean                =   0.0000000000000000E+00
(PID.TID 0000.0001) %MON exf_evap_sd                  =   0.0000000000000000E+00
(PID.TID 0000.0001) %MON exf_evap_del2                =   0.0000000000000000E+00
(PID.TID 0000.0001) // =======================================================
(PID.TID 0000.0001) // End MONITOR EXF statistics
(PID.TID 0000.0001) // =======================================================
 EXTERNAL_FIELDS_LOAD, it=   5644800 : Reading new data, i0,i1=   12    1 (prev=   12    0 )
(PID.TID 0000.0001)  MDS_READ_FIELD: opening global file: ../../monod_global_128x64x15/input/input_ocmip/tren_taux.bin
(PID.TID 0000.0001)  MDS_READ_FIELD: opening global file: ../../monod_global_128x64x15/input/input_ocmip/tren_taux.bin
(PID.TID 0000.0001)  MDS_READ_FIELD: opening global file: ../../monod_global_128x64x15/input/input_ocmip/tren_tauy.bin
(PID.TID 0000.0001)  MDS_READ_FIELD: opening global file: ../../monod_global_128x64x15/input/input_ocmip/tren_tauy.bin
(PID.TID 0000.0001)  MDS_READ_FIELD: opening global file: ../../monod_global_128x64x15/input/input_ocmip/shi_qnet.bin
(PID.TID 0000.0001)  MDS_READ_FIELD: opening global file: ../../monod_global_128x64x15/input/input_ocmip/shi_qnet.bin
(PID.TID 0000.0001)  MDS_READ_FIELD: opening global file: ../../monod_global_128x64x15/input/input_ocmip/shi_empmr_year.bin
(PID.TID 0000.0001)  MDS_READ_FIELD: opening global file: ../../monod_global_128x64x15/input/input_ocmip/shi_empmr_year.bin
(PID.TID 0000.0001)  MDS_READ_FIELD: opening global file: ../../monod_global_128x64x15/input/input_ocmip/lev_monthly_temp.bin
(PID.TID 0000.0001)  MDS_READ_FIELD: opening global file: ../../monod_global_128x64x15/input/input_ocmip/lev_monthly_temp.bin
(PID.TID 0000.0001)  MDS_READ_FIELD: opening global file: ../../monod_global_128x64x15/input/input_ocmip/lev_monthly_salt.bin
(PID.TID 0000.0001)  MDS_READ_FIELD: opening global file: ../../monod_global_128x64x15/input/input_ocmip/lev_monthly_salt.bin
(PID.TID 0000.0001)  MDS_READ_FIELD: opening global file: ../input/input/par_ecco.bin_mth-2d.bin
(PID.TID 0000.0001)  MDS_READ_FIELD: opening global file: ../input/input/par_ecco.bin_mth-2d.bin
(PID.TID 0000.0001)  MDS_READ_FIELD: opening global file: ../input/input/mahowald2009_solubile_current_smooth_oce_mth-2d.bin
(PID.TID 0000.0001)  MDS_READ_FIELD: opening global file: ../input/input/mahowald2009_solubile_current_smooth_oce_mth-2d.bin
(PID.TID 0000.0001)  MDS_READ_FIELD: opening global file: ../input/input/nasa_icefraction_mth-2d.bin
(PID.TID 0000.0001)  MDS_READ_FIELD: opening global file: ../input/input/nasa_icefraction_mth-2d.bin
(PID.TID 0000.0001) SOLVE_FOR_PRESSURE: putPmEinXvector =    F
 cg2d: Sum(rhs),rhsMax =  -6.05368342121437E-07  7.54400175964654E+00
(PID.TID 0000.0001)      cg2d_init_res =   1.59137915320038E-02
(PID.TID 0000.0001)      cg2d_iters(min,last) =      -1      22
(PID.TID 0000.0001)      cg2d_last_res =   7.51189066202892E-14
(PID.TID 0000.0001) totgC    1.9795798709650869E-03   1.6862046728826733E-21
(PID.TID 0000.0001) totgN    3.9391778435649005E-05   3.3553887794872280E-23
(PID.TID 0000.0001) totgP    0.0000000000000000E+00   0.0000000000000000E+00
(PID.TID 0000.0001) totgFe  -3.7316348908890365E+05  -3.1786038455935040E-13
(PID.TID 0000.0001) totgSi   0.0000000000000000E+00   0.0000000000000000E+00
 fe   0.0000000000000000     
 fe   0.0000000000000000     
(PID.TID 0000.0001) totgC    1.9415757656236488E-03   1.6538328040051540E-21
(PID.TID 0000.0001) totgN    3.7922905320203482E-05   3.2302702759368526E-23
(PID.TID 0000.0001) totgP    0.0000000000000000E+00   0.0000000000000000E+00
(PID.TID 0000.0001) totgFe  -3.7318457116680749E+05  -3.1787834225774740E-13
(PID.TID 0000.0001) totgSi   0.0000000000000000E+00   0.0000000000000000E+00
 fe   0.0000000000000000     
 fe   0.0000000000000000     
(PID.TID 0000.0001) // =======================================================
(PID.TID 0000.0001) // Begin MONITOR dynamic field statistics
(PID.TID 0000.0001) // =======================================================
(PID.TID 0000.0001) %MON time_tsnumber                =               5644801
(PID.TID 0000.0001) %MON time_secondsf                =   2.4385540320000000E+11
(PID.TID 0000.0001) %MON dynstat_eta_max              =   9.3711923053630530E-01
(PID.TID 0000.0001) %MON dynstat_eta_min              =  -1.7305068608986975E+00
(PID.TID 0000.0001) %MON dynstat_eta_mean             =   1.6246257487269889E-10
(PID.TID 0000.0001) %MON dynstat_eta_sd               =   6.5174294624010964E-01
(PID.TID 0000.0001) %MON dynstat_eta_del2             =   9.2916548180735142E-04
(PID.TID 0000.0001) %MON dynstat_uvel_max             =   1.5513369191489287E-01
(PID.TID 0000.0001) %MON dynstat_uvel_min             =  -1.8453487673594793E-01
(PID.TID 0000.0001) %MON dynstat_uvel_mean            =   2.9501853655047689E-03
(PID.TID 0000.0001) %MON dynstat_uvel_sd              =   1.3888245927797463E-02
(PID.TID 0000.0001) %MON dynstat_uvel_del2            =   3.8115539865670760E-05
(PID.TID 0000.0001) %MON dynstat_vvel_max             =   1.1196082331801557E-01
(PID.TID 0000.0001) %MON dynstat_vvel_min             =  -1.5166835089545888E-01
(PID.TID 0000.0001) %MON dynstat_vvel_mean            =  -1.9221357240846535E-04
(PID.TID 0000.0001) %MON dynstat_vvel_sd              =   6.3571349841719665E-03
(PID.TID 0000.0001) %MON dynstat_vvel_del2            =   2.6613086542045497E-05
(PID.TID 0000.0001) %MON dynstat_wvel_max             =   4.3063427626979797E-05
(PID.TID 0000.0001) %MON dynstat_wvel_min             =  -6.4970094182436355E-05
(PID.TID 0000.0001) %MON dynstat_wvel_mean            =  -7.3905911684751561E-23
(PID.TID 0000.0001) %MON dynstat_wvel_sd              =   1.9039109380105337E-06
(PID.TID 0000.0001) %MON dynstat_wvel_del2            =   1.3084115229147395E-08
(PID.TID 0000.0001) %MON dynstat_theta_max            =   2.9953784819706151E+01
(PID.TID 0000.0001) %MON dynstat_theta_min            =  -2.1379251179878707E+00
(PID.TID 0000.0001) %MON dynstat_theta_mean           =   3.7551449719968204E+00
(PID.TID 0000.0001) %MON dynstat_theta_sd             =   5.1497928609322026E+00
(PID.TID 0000.0001) %MON dynstat_theta_del2           =   2.2450162450492919E-03
(PID.TID 0000.0001) %MON dynstat_salt_max             =   3.7553833793841186E+01
(PID.TID 0000.0001) %MON dynstat_salt_min             =   3.1355599749520685E+01
(PID.TID 0000.0001) %MON dynstat_salt_mean            =   3.4543282692406400E+01
(PID.TID 0000.0001) %MON dynstat_salt_sd              =   3.5868437918066193E-01
(PID.TID 0000.0001) %MON dynstat_salt_del2            =   3.8099260787749148E-04
(PID.TID 0000.0001) %MON forcing_qnet_max             =   4.5173381042480469E+02
(PID.TID 0000.0001) %MON forcing_qnet_min             =  -2.1320401000976562E+02
(PID.TID 0000.0001) %MON forcing_qnet_mean            =  -1.7634591469579000E+01
(PID.TID 0000.0001) %MON forcing_qnet_sd              =   1.1599881404185476E+02
(PID.TID 0000.0001) %MON forcing_qnet_del2            =   2.7302567191348992E-01
(PID.TID 0000.0001) %MON forcing_qsw_max              =   0.0000000000000000E+00
(PID.TID 0000.0001) %MON forcing_qsw_min              =   0.0000000000000000E+00
(PID.TID 0000.0001) %MON forcing_qsw_mean             =   0.0000000000000000E+00
(PID.TID 0000.0001) %MON forcing_qsw_sd               =   0.0000000000000000E+00
(PID.TID 0000.0001) %MON forcing_qsw_del2             =   0.0000000000000000E+00
(PID.TID 0000.0001) %MON forcing_empmr_max            =   6.9206222512718796E-05
(PID.TID 0000.0001) %MON forcing_empmr_min            =  -1.5544422772961752E-04
(PID.TID 0000.0001) %MON forcing_empmr_mean           =   1.2460352661810301E-14
(PID.TID 0000.0001) %MON forcing_empmr_sd             =   2.4700019777611149E-05
(PID.TID 0000.0001) %MON forcing_empmr_del2           =   1.1591736879228609E-07
(PID.TID 0000.0001) %MON forcing_fu_max               =   2.6936699450016022E-01
(PID.TID 0000.0001) %MON forcing_fu_min               =  -1.5727265179157257E-01
(PID.TID 0000.0001) %MON forcing_fu_mean              =   1.7831973356732405E-02
(PID.TID 0000.0001) %MON forcing_fu_sd                =   8.9620299147479751E-02
(PID.TID 0000.0001) %MON forcing_fu_del2              =   2.4782395373364142E-04
(PID.TID 0000.0001) %MON forcing_fv_max               =   1.9744335860013962E-01
(PID.TID 0000.0001) %MON forcing_fv_min               =  -1.5944199264049530E-01
(PID.TID 0000.0001) %MON forcing_fv_mean              =  -6.4503818001954896E-03
(PID.TID 0000.0001) %MON forcing_fv_sd                =   4.4276273939354197E-02
(PID.TID 0000.0001) %MON forcing_fv_del2              =   1.7990220506046566E-04
(PID.TID 0000.0001) %MON advcfl_uvel_max              =   4.0061637225570698E-02
(PID.TID 0000.0001) %MON advcfl_vvel_max              =   2.0954117767882585E-02
(PID.TID 0000.0001) %MON advcfl_wvel_max              =   1.3147981225896959E-02
(PID.TID 0000.0001) %MON advcfl_W_hf_max              =   1.5495835016235700E-02
(PID.TID 0000.0001) %MON pe_b_mean                    =   5.8633886579121611E-04
(PID.TID 0000.0001) %MON ke_max                       =   1.7885149972186300E-02
(PID.TID 0000.0001) %MON ke_mean                      =   1.1150737021517801E-04
(PID.TID 0000.0001) %MON ke_vol                       =   1.1739855207380157E+18
(PID.TID 0000.0001) %MON vort_r_min                   =  -5.5446608387695888E-07
(PID.TID 0000.0001) %MON vort_r_max                   =   6.2111605841996909E-07
(PID.TID 0000.0001) %MON vort_a_mean                  =  -2.5798915502264590E-05
(PID.TID 0000.0001) %MON vort_a_sd                    =   7.3558772869366382E-05
(PID.TID 0000.0001) %MON vort_p_mean                  =  -3.0020960747216240E-05
(PID.TID 0000.0001) %MON vort_p_sd                    =   9.8090578046796075E-05
(PID.TID 0000.0001) %MON surfExpan_theta_mean         =  -2.9532654695924761E-07
(PID.TID 0000.0001) %MON surfExpan_salt_mean          =   2.3754721100881155E-08
(PID.TID 0000.0001) // =======================================================
(PID.TID 0000.0001) // End MONITOR dynamic field statistics
(PID.TID 0000.0001) // =======================================================
(PID.TID 0000.0001) // =======================================================
(PID.TID 0000.0001) // Begin MONITOR ptracer field statistics
(PID.TID 0000.0001) // =======================================================
(PID.TID 0000.0001) %MON trcstat_ptracer01_max        =   2.3885193343962660E+03
(PID.TID 0000.0001) %MON trcstat_ptracer01_min        =   1.7785382484726656E+03
(PID.TID 0000.0001) %MON trcstat_ptracer01_mean       =   2.2509326025385844E+03
(PID.TID 0000.0001) %MON trcstat_ptracer01_sd         =   9.3592881399995051E+01
(PID.TID 0000.0001) %MON trcstat_ptracer01_del2       =   4.2032383841462746E-02
(PID.TID 0000.0001) %MON trcstat_ptracer02_max        =   1.3385759662269911E-01
(PID.TID 0000.0001) %MON trcstat_ptracer02_min        =   8.6577326075307171E-07
(PID.TID 0000.0001) %MON trcstat_ptracer02_mean       =   1.8343680874417885E-03
(PID.TID 0000.0001) %MON trcstat_ptracer02_sd         =   5.8178948760991599E-03
(PID.TID 0000.0001) %MON trcstat_ptracer02_del2       =   1.1928135610215753E-05
(PID.TID 0000.0001) %MON trcstat_ptracer03_max        =   1.5852631893413789E+00
(PID.TID 0000.0001) %MON trcstat_ptracer03_min        =   1.2337000104266013E-05
(PID.TID 0000.0001) %MON trcstat_ptracer03_mean       =   2.3196637632501557E-02
(PID.TID 0000.0001) %MON trcstat_ptracer03_sd         =   7.2233560104532149E-02
(PID.TID 0000.0001) %MON trcstat_ptracer03_del2       =   1.4954417601967349E-04
(PID.TID 0000.0001) %MON trcstat_ptracer04_max        =   4.6630376738681335E+01
(PID.TID 0000.0001) %MON trcstat_ptracer04_min        =   1.4409142894886727E-02
(PID.TID 0000.0001) %MON trcstat_ptracer04_mean       =   3.0985212974163780E+01
(PID.TID 0000.0001) %MON trcstat_ptracer04_sd         =   9.0342136590281861E+00
(PID.TID 0000.0001) %MON trcstat_ptracer04_del2       =   4.7188030487535608E-03
(PID.TID 0000.0001) %MON trcstat_ptracer05_max        =   0.0000000000000000E+00
(PID.TID 0000.0001) %MON trcstat_ptracer05_min        =   0.0000000000000000E+00
(PID.TID 0000.0001) %MON trcstat_ptracer05_mean       =   0.0000000000000000E+00
(PID.TID 0000.0001) %MON trcstat_ptracer05_sd         =   0.0000000000000000E+00
(PID.TID 0000.0001) %MON trcstat_ptracer05_del2       =   0.0000000000000000E+00
(PID.TID 0000.0001) %MON trcstat_ptracer06_max        =   0.0000000000000000E+00
(PID.TID 0000.0001) %MON trcstat_ptracer06_min        =   0.0000000000000000E+00
(PID.TID 0000.0001) %MON trcstat_ptracer06_mean       =   0.0000000000000000E+00
(PID.TID 0000.0001) %MON trcstat_ptracer06_sd         =   0.0000000000000000E+00
(PID.TID 0000.0001) %MON trcstat_ptracer06_del2       =   0.0000000000000000E+00
(PID.TID 0000.0001) %MON trcstat_ptracer07_max        =   1.0536180696284407E-03
(PID.TID 0000.0001) %MON trcstat_ptracer07_min        =   2.2397688029080940E-04
(PID.TID 0000.0001) %MON trcstat_ptracer07_mean       =   5.3063094550784805E-04
(PID.TID 0000.0001) %MON trcstat_ptracer07_sd         =   1.0682593430636943E-04
(PID.TID 0000.0001) %MON trcstat_ptracer07_del2       =   8.2667298908962376E-08
(PID.TID 0000.0001) %MON trcstat_ptracer08_max        =   1.2383675854746164E+01
(PID.TID 0000.0001) %MON trcstat_ptracer08_min        =  -1.0349521764361004E-04
(PID.TID 0000.0001) %MON trcstat_ptracer08_mean       =   5.3802887294934355E-02
(PID.TID 0000.0001) %MON trcstat_ptracer08_sd         =   2.8447966188182361E-01
(PID.TID 0000.0001) %MON trcstat_ptracer08_del2       =   9.8743647873200083E-04
(PID.TID 0000.0001) %MON trcstat_ptracer09_max        =   1.8692351307408324E+00
(PID.TID 0000.0001) %MON trcstat_ptracer09_min        =  -1.5587113148908600E-05
(PID.TID 0000.0001) %MON trcstat_ptracer09_mean       =   8.1212003366174217E-03
(PID.TID 0000.0001) %MON trcstat_ptracer09_sd         =   4.2940362533987593E-02
(PID.TID 0000.0001) %MON trcstat_ptracer09_del2       =   1.4904704809907791E-04
(PID.TID 0000.0001) %MON trcstat_ptracer10_max        =   0.0000000000000000E+00
(PID.TID 0000.0001) %MON trcstat_ptracer10_min        =   0.0000000000000000E+00
(PID.TID 0000.0001) %MON trcstat_ptracer10_mean       =   0.0000000000000000E+00
(PID.TID 0000.0001) %MON trcstat_ptracer10_sd         =   0.0000000000000000E+00
(PID.TID 0000.0001) %MON trcstat_ptracer10_del2       =   0.0000000000000000E+00
(PID.TID 0000.0001) %MON trcstat_ptracer11_max        =   2.9206038260423044E-04
(PID.TID 0000.0001) %MON trcstat_ptracer11_min        =  -2.4900306852106378E-09
(PID.TID 0000.0001) %MON trcstat_ptracer11_mean       =   1.2689080204450732E-06
(PID.TID 0000.0001) %MON trcstat_ptracer11_sd         =   6.7093028743131484E-06
(PID.TID 0000.0001) %MON trcstat_ptracer11_del2       =   2.3288463783853030E-08
(PID.TID 0000.0001) %MON trcstat_ptracer12_max        =   7.8331523695957479E+00
(PID.TID 0000.0001) %MON trcstat_ptracer12_min        =   3.7357736790582918E-06
(PID.TID 0000.0001) %MON trcstat_ptracer12_mean       =   5.1954886627310029E-02
(PID.TID 0000.0001) %MON trcstat_ptracer12_sd         =   1.3879654424148216E-01
(PID.TID 0000.0001) %MON trcstat_ptracer12_del2       =   4.4789011566083702E-04
(PID.TID 0000.0001) %MON trcstat_ptracer13_max        =   1.1823621741523691E+00
(PID.TID 0000.0001) %MON trcstat_ptracer13_min        =   5.6391309412628676E-07
(PID.TID 0000.0001) %MON trcstat_ptracer13_mean       =   7.8422452856799964E-03
(PID.TID 0000.0001) %MON trcstat_ptracer13_sd         =   2.0950418848496070E-02
(PID.TID 0000.0001) %MON trcstat_ptracer13_del2       =   6.7606048464312942E-05
(PID.TID 0000.0001) %MON trcstat_ptracer14_max        =   0.0000000000000000E+00
(PID.TID 0000.0001) %MON trcstat_ptracer14_min        =   0.0000000000000000E+00
(PID.TID 0000.0001) %MON trcstat_ptracer14_mean       =   0.0000000000000000E+00
(PID.TID 0000.0001) %MON trcstat_ptracer14_sd         =   0.0000000000000000E+00
(PID.TID 0000.0001) %MON trcstat_ptracer14_del2       =   0.0000000000000000E+00
(PID.TID 0000.0001) %MON trcstat_ptracer15_max        =   0.0000000000000000E+00
(PID.TID 0000.0001) %MON trcstat_ptracer15_min        =   0.0000000000000000E+00
(PID.TID 0000.0001) %MON trcstat_ptracer15_mean       =   0.0000000000000000E+00
(PID.TID 0000.0001) %MON trcstat_ptracer15_sd         =   0.0000000000000000E+00
(PID.TID 0000.0001) %MON trcstat_ptracer15_del2       =   0.0000000000000000E+00
(PID.TID 0000.0001) %MON trcstat_ptracer16_max        =   1.8473772488221781E-04
(PID.TID 0000.0001) %MON trcstat_ptracer16_min        =   8.7875254726040992E-11
(PID.TID 0000.0001) %MON trcstat_ptracer16_mean       =   1.2253259688496305E-06
(PID.TID 0000.0001) %MON trcstat_ptracer16_sd         =   3.2734305709673684E-06
(PID.TID 0000.0001) %MON trcstat_ptracer16_del2       =   1.0563361898673233E-08
(PID.TID 0000.0001) %MON trcstat_ptracer17_max        =   0.0000000000000000E+00
(PID.TID 0000.0001) %MON trcstat_ptracer17_min        =   0.0000000000000000E+00
(PID.TID 0000.0001) %MON trcstat_ptracer17_mean       =   0.0000000000000000E+00
(PID.TID 0000.0001) %MON trcstat_ptracer17_sd         =   0.0000000000000000E+00
(PID.TID 0000.0001) %MON trcstat_ptracer17_del2       =   0.0000000000000000E+00
(PID.TID 0000.0001) %MON trcstat_ptracer18_max        =   2.4657511003327503E-03
(PID.TID 0000.0001) %MON trcstat_ptracer18_min        =   3.9426519687228107E-08
(PID.TID 0000.0001) %MON trcstat_ptracer18_mean       =   4.7554348731614013E-06
(PID.TID 0000.0001) %MON trcstat_ptracer18_sd         =   3.6447193997894875E-05
(PID.TID 0000.0001) %MON trcstat_ptracer18_del2       =   1.8965646357768857E-07
(PID.TID 0000.0001) %MON trcstat_ptracer19_max        =   2.5819949263227479E-03
(PID.TID 0000.0001) %MON trcstat_ptracer19_min        =   5.2116955692164406E-08
(PID.TID 0000.0001) %MON trcstat_ptracer19_mean       =   5.4308147716352756E-06
(PID.TID 0000.0001) %MON trcstat_ptracer19_sd         =   4.0412370679684300E-05
(PID.TID 0000.0001) %MON trcstat_ptracer19_del2       =   2.0700784776684198E-07
(PID.TID 0000.0001) %MON trcstat_ptracer20_max        =   3.3278625445321000E-03
(PID.TID 0000.0001) %MON trcstat_ptracer20_min        =   5.7302448947535487E-08
(PID.TID 0000.0001) %MON trcstat_ptracer20_mean       =   6.2424064909687543E-06
(PID.TID 0000.0001) %MON trcstat_ptracer20_sd         =   4.5751787961866209E-05
(PID.TID 0000.0001) %MON trcstat_ptracer20_del2       =   2.3023479162377182E-07
(PID.TID 0000.0001) %MON trcstat_ptracer21_max        =   3.4206663008637126E-03
(PID.TID 0000.0001) %MON trcstat_ptracer21_min        =   6.2882051238553734E-08
(PID.TID 0000.0001) %MON trcstat_ptracer21_mean       =   6.5061807530368828E-06
(PID.TID 0000.0001) %MON trcstat_ptracer21_sd         =   4.7574341138573406E-05
(PID.TID 0000.0001) %MON trcstat_ptracer21_del2       =   2.4050691823428271E-07
(PID.TID 0000.0001) %MON trcstat_ptracer22_max        =   3.3100577336335419E-03
(PID.TID 0000.0001) %MON trcstat_ptracer22_min        =   6.9172089971115384E-08
(PID.TID 0000.0001) %MON trcstat_ptracer22_mean       =   6.6498596694616175E-06
(PID.TID 0000.0001) %MON trcstat_ptracer22_sd         =   4.8621387313270243E-05
(PID.TID 0000.0001) %MON trcstat_ptracer22_del2       =   2.4626992219163679E-07
(PID.TID 0000.0001) %MON trcstat_ptracer23_max        =   3.7820294421606355E-03
(PID.TID 0000.0001) %MON trcstat_ptracer23_min        =   7.5915480129122334E-08
(PID.TID 0000.0001) %MON trcstat_ptracer23_mean       =   7.1889671236849053E-06
(PID.TID 0000.0001) %MON trcstat_ptracer23_sd         =   5.2529322558235863E-05
(PID.TID 0000.0001) %MON trcstat_ptracer23_del2       =   2.6368151116704990E-07
(PID.TID 0000.0001) %MON trcstat_ptracer24_max        =   3.8416782199337161E-03
(PID.TID 0000.0001) %MON trcstat_ptracer24_min        =   7.8518066587145521E-08
(PID.TID 0000.0001) %MON trcstat_ptracer24_mean       =   7.3605286701179664E-06
(PID.TID 0000.0001) %MON trcstat_ptracer24_sd         =   5.3751290168994004E-05
(PID.TID 0000.0001) %MON trcstat_ptracer24_del2       =   2.6965451341496117E-07
(PID.TID 0000.0001) %MON trcstat_ptracer25_max        =   3.9272934755880708E-03
(PID.TID 0000.0001) %MON trcstat_ptracer25_min        =   8.0555694178417933E-08
(PID.TID 0000.0001) %MON trcstat_ptracer25_mean       =   7.5176486932379131E-06
(PID.TID 0000.0001) %MON trcstat_ptracer25_sd         =   5.4858162032411477E-05
(PID.TID 0000.0001) %MON trcstat_ptracer25_del2       =   2.7499843699193017E-07
(PID.TID 0000.0001) %MON trcstat_ptracer26_max        =   4.0171256898763937E-03
(PID.TID 0000.0001) %MON trcstat_ptracer26_min        =   8.2235613219080580E-08
(PID.TID 0000.0001) %MON trcstat_ptracer26_mean       =   7.6493033286796965E-06
(PID.TID 0000.0001) %MON trcstat_ptracer26_sd         =   5.5781670631112492E-05
(PID.TID 0000.0001) %MON trcstat_ptracer26_del2       =   2.7942698616887945E-07
(PID.TID 0000.0001) %MON trcstat_ptracer27_max        =   4.0789549311539865E-03
(PID.TID 0000.0001) %MON trcstat_ptracer27_min        =   8.3012989749103673E-08
(PID.TID 0000.0001) %MON trcstat_ptracer27_mean       =   7.7240963848995878E-06
(PID.TID 0000.0001) %MON trcstat_ptracer27_sd         =   5.6302291421728563E-05
(PID.TID 0000.0001) %MON trcstat_ptracer27_del2       =   2.8192285147829589E-07
(PID.TID 0000.0001) %MON trcstat_ptracer28_max        =   5.1084383587039223E-03
(PID.TID 0000.0001) %MON trcstat_ptracer28_min        =   8.3014633189923195E-08
(PID.TID 0000.0001) %MON trcstat_ptracer28_mean       =   8.4918867524183057E-06
(PID.TID 0000.0001) %MON trcstat_ptracer28_sd         =   6.2131164353675057E-05
(PID.TID 0000.0001) %MON trcstat_ptracer28_del2       =   3.0706899664643704E-07
(PID.TID 0000.0001) %MON trcstat_ptracer29_max        =   5.0917961849040868E-03
(PID.TID 0000.0001) %MON trcstat_ptracer29_min        =   8.3018754671447694E-08
(PID.TID 0000.0001) %MON trcstat_ptracer29_mean       =   8.4427254574009879E-06
(PID.TID 0000.0001) %MON trcstat_ptracer29_sd         =   6.1745721308146010E-05
(PID.TID 0000.0001) %MON trcstat_ptracer29_del2       =   3.0542922430667748E-07
(PID.TID 0000.0001) %MON trcstat_ptracer30_max        =   5.0489069184212424E-03
(PID.TID 0000.0001) %MON trcstat_ptracer30_min        =   8.3019106330745598E-08
(PID.TID 0000.0001) %MON trcstat_ptracer30_mean       =   8.3561452618514291E-06
(PID.TID 0000.0001) %MON trcstat_ptracer30_sd         =   6.1074492244678360E-05
(PID.TID 0000.0001) %MON trcstat_ptracer30_del2       =   3.0274066442939694E-07
(PID.TID 0000.0001) %MON trcstat_ptracer31_max        =   4.9358637188092495E-03
(PID.TID 0000.0001) %MON trcstat_ptracer31_min        =   8.3019965254409923E-08
(PID.TID 0000.0001) %MON trcstat_ptracer31_mean       =   8.2300216003055769E-06
(PID.TID 0000.0001) %MON trcstat_ptracer31_sd         =   6.0026736144873606E-05
(PID.TID 0000.0001) %MON trcstat_ptracer31_del2       =   2.9824820341659966E-07
(PID.TID 0000.0001) %MON trcstat_ptracer32_max        =   4.6920427885971663E-03
(PID.TID 0000.0001) %MON trcstat_ptracer32_min        =   8.3020958205021009E-08
(PID.TID 0000.0001) %MON trcstat_ptracer32_mean       =   8.0661224601472138E-06
(PID.TID 0000.0001) %MON trcstat_ptracer32_sd         =   5.8734747229079743E-05
(PID.TID 0000.0001) %MON trcstat_ptracer32_del2       =   2.9254879594577510E-07
(PID.TID 0000.0001) %MON trcstat_ptracer33_max        =   4.4616469271283963E-03
(PID.TID 0000.0001) %MON trcstat_ptracer33_min        =   8.3020953432326133E-08
(PID.TID 0000.0001) %MON trcstat_ptracer33_mean       =   7.9111692432289514E-06
(PID.TID 0000.0001) %MON trcstat_ptracer33_sd         =   5.7531161675476353E-05
(PID.TID 0000.0001) %MON trcstat_ptracer33_del2       =   2.8725082002821799E-07
(PID.TID 0000.0001) %MON trcstat_ptracer34_max        =   4.2461506682549884E-03
(PID.TID 0000.0001) %MON trcstat_ptracer34_min        =   8.3020945408640218E-08
(PID.TID 0000.0001) %MON trcstat_ptracer34_mean       =   7.7668268134014306E-06
(PID.TID 0000.0001) %MON trcstat_ptracer34_sd         =   5.6416112867070097E-05
(PID.TID 0000.0001) %MON trcstat_ptracer34_del2       =   2.8232889319249890E-07
(PID.TID 0000.0001) %MON trcstat_ptracer35_max        =   4.0462000634490366E-03
(PID.TID 0000.0001) %MON trcstat_ptracer35_min        =   8.3020931855858052E-08
(PID.TID 0000.0001) %MON trcstat_ptracer35_mean       =   7.6328174411120490E-06
(PID.TID 0000.0001) %MON trcstat_ptracer35_sd         =   5.5381350865166318E-05
(PID.TID 0000.0001) %MON trcstat_ptracer35_del2       =   2.7773914582888910E-07
(PID.TID 0000.0001) %MON trcstat_ptracer36_max        =   3.8615419551039369E-03
(PID.TID 0000.0001) %MON trcstat_ptracer36_min        =   8.3020908878712876E-08
(PID.TID 0000.0001) %MON trcstat_ptracer36_mean       =   7.5086975228438751E-06
(PID.TID 0000.0001) %MON trcstat_ptracer36_sd         =   5.4416888201910447E-05
(PID.TID 0000.0001) %MON trcstat_ptracer36_del2       =   2.7342656246457407E-07
(PID.TID 0000.0001) %MON trcstat_ptracer37_max        =   3.6910642320743320E-03
(PID.TID 0000.0001) %MON trcstat_ptracer37_min        =   8.3020869810193182E-08
(PID.TID 0000.0001) %MON trcstat_ptracer37_mean       =   7.3938976758355478E-06
(PID.TID 0000.0001) %MON trcstat_ptracer37_sd         =   5.3511165577380416E-05
(PID.TID 0000.0001) %MON trcstat_ptracer37_del2       =   2.6932510669408736E-07
(PID.TID 0000.0001) %MON trcstat_ptracer38_max        =   3.5329080546595863E-03
(PID.TID 0000.0001) %MON trcstat_ptracer38_min        =   8.3020803230565584E-08
(PID.TID 0000.0001) %MON trcstat_ptracer38_mean       =   7.2877719606110223E-06
(PID.TID 0000.0001) %MON trcstat_ptracer38_sd         =   5.2651201002994530E-05
(PID.TID 0000.0001) %MON trcstat_ptracer38_del2       =   2.6535795028985670E-07
(PID.TID 0000.0001) %MON trcstat_ptracer39_max        =   3.3846013549286361E-03
(PID.TID 0000.0001) %MON trcstat_ptracer39_min        =   8.3020689567865866E-08
(PID.TID 0000.0001) %MON trcstat_ptracer39_mean       =   7.1896463443627776E-06
(PID.TID 0000.0001) %MON trcstat_ptracer39_sd         =   5.1822663590701567E-05
(PID.TID 0000.0001) %MON trcstat_ptracer39_del2       =   2.6143751984417579E-07
(PID.TID 0000.0001) %MON trcstat_ptracer40_max        =   3.2431680440865203E-03
(PID.TID 0000.0001) %MON trcstat_ptracer40_min        =   8.3020495263232979E-08
(PID.TID 0000.0001) %MON trcstat_ptracer40_mean       =   7.0988588187148461E-06
(PID.TID 0000.0001) %MON trcstat_ptracer40_sd         =   5.1009853043090883E-05
(PID.TID 0000.0001) %MON trcstat_ptracer40_del2       =   2.5746529639174630E-07
(PID.TID 0000.0001) %MON trcstat_ptracer41_max        =   3.1051836833974338E-03
(PID.TID 0000.0001) %MON trcstat_ptracer41_min        =   8.3020162755609244E-08
(PID.TID 0000.0001) %MON trcstat_ptracer41_mean       =   7.0147871639567647E-06
(PID.TID 0000.0001) %MON trcstat_ptracer41_sd         =   5.0195621075706167E-05
(PID.TID 0000.0001) %MON trcstat_ptracer41_del2       =   2.5333171558092636E-07
(PID.TID 0000.0001) %MON trcstat_ptracer42_max        =   2.9667684569053489E-03
(PID.TID 0000.0001) %MON trcstat_ptracer42_min        =   8.3019593288857840E-08
(PID.TID 0000.0001) %MON trcstat_ptracer42_mean       =   6.9368638330119669E-06
(PID.TID 0000.0001) %MON trcstat_ptracer42_sd         =   4.9361341099458212E-05
(PID.TID 0000.0001) %MON trcstat_ptracer42_del2       =   2.4891715080438258E-07
(PID.TID 0000.0001) %MON trcstat_ptracer43_max        =   3.1266312896799171E-03
(PID.TID 0000.0001) %MON trcstat_ptracer43_min        =   5.5917630809027769E-08
(PID.TID 0000.0001) %MON trcstat_ptracer43_mean       =   6.1391742862814366E-06
(PID.TID 0000.0001) %MON trcstat_ptracer43_sd         =   4.5737150390775475E-05
(PID.TID 0000.0001) %MON trcstat_ptracer43_del2       =   2.3906821137401778E-07
(PID.TID 0000.0001) %MON trcstat_ptracer44_max        =   3.1263444225017607E-03
(PID.TID 0000.0001) %MON trcstat_ptracer44_min        =   5.5917630808986668E-08
(PID.TID 0000.0001) %MON trcstat_ptracer44_mean       =   6.1391460922057368E-06
(PID.TID 0000.0001) %MON trcstat_ptracer44_sd         =   4.5736263668370663E-05
(PID.TID 0000.0001) %MON trcstat_ptracer44_del2       =   2.3905686565427211E-07
(PID.TID 0000.0001) %MON trcstat_ptracer45_max        =   3.1260878678646756E-03
(PID.TID 0000.0001) %MON trcstat_ptracer45_min        =   5.5917630808949889E-08
(PID.TID 0000.0001) %MON trcstat_ptracer45_mean       =   6.1391208698100138E-06
(PID.TID 0000.0001) %MON trcstat_ptracer45_sd         =   4.5735470634715588E-05
(PID.TID 0000.0001) %MON trcstat_ptracer45_del2       =   2.3904671754498917E-07
(PID.TID 0000.0001) %MON trcstat_ptracer46_max        =   3.1258584041884969E-03
(PID.TID 0000.0001) %MON trcstat_ptracer46_min        =   5.5917630808916974E-08
(PID.TID 0000.0001) %MON trcstat_ptracer46_mean       =   6.1390983047534553E-06
(PID.TID 0000.0001) %MON trcstat_ptracer46_sd         =   4.5734761334323784E-05
(PID.TID 0000.0001) %MON trcstat_ptracer46_del2       =   2.3903764001263097E-07
(PID.TID 0000.0001) %MON trcstat_ptracer47_max        =   3.1256531559405872E-03
(PID.TID 0000.0001) %MON trcstat_ptracer47_min        =   5.5917630808887506E-08
(PID.TID 0000.0001) %MON trcstat_ptracer47_mean       =   6.1390781161683402E-06
(PID.TID 0000.0001) %MON trcstat_ptracer47_sd         =   4.5734126880798815E-05
(PID.TID 0000.0001) %MON trcstat_ptracer47_del2       =   2.3902951962124096E-07
(PID.TID 0000.0001) %MON trcstat_ptracer48_max        =   3.1254695557454588E-03
(PID.TID 0000.0001) %MON trcstat_ptracer48_min        =   5.5917630808861129E-08
(PID.TID 0000.0001) %MON trcstat_ptracer48_mean       =   6.1390600530518029E-06
(PID.TID 0000.0001) %MON trcstat_ptracer48_sd         =   4.5733559339818749E-05
(PID.TID 0000.0001) %MON trcstat_ptracer48_del2       =   2.3902225505264681E-07
(PID.TID 0000.0001) %MON trcstat_ptracer49_max        =   3.1253053107830730E-03
(PID.TID 0000.0001) %MON trcstat_ptracer49_min        =   5.5917630808837531E-08
(PID.TID 0000.0001) %MON trcstat_ptracer49_mean       =   6.1390438910548192E-06
(PID.TID 0000.0001) %MON trcstat_ptracer49_sd         =   4.5733051625359340E-05
(PID.TID 0000.0001) %MON trcstat_ptracer49_del2       =   2.3901575579250228E-07
(PID.TID 0000.0001) %MON trcstat_ptracer50_max        =   3.1251583729637205E-03
(PID.TID 0000.0001) %MON trcstat_ptracer50_min        =   5.5917630808816408E-08
(PID.TID 0000.0001) %MON trcstat_ptracer50_mean       =   6.1390294296237821E-06
(PID.TID 0000.0001) %MON trcstat_ptracer50_sd         =   4.5732597407576413E-05
(PID.TID 0000.0001) %MON trcstat_ptracer50_del2       =   2.3900994096263761E-07
(PID.TID 0000.0001) %MON trcstat_ptracer51_max        =   3.1250269124334577E-03
(PID.TID 0000.0001) %MON trcstat_ptracer51_min        =   5.5917630808797496E-08
(PID.TID 0000.0001) %MON trcstat_ptracer51_mean       =   6.1390164894538572E-06
(PID.TID 0000.0001) %MON trcstat_ptracer51_sd         =   4.5732191030969894E-05
(PID.TID 0000.0001) %MON trcstat_ptracer51_del2       =   2.3900473828267246E-07
(PID.TID 0000.0001) %MON trcstat_ptracer52_max        =   3.1249092940207461E-03
(PID.TID 0000.0001) %MON trcstat_ptracer52_min        =   5.5917630808780575E-08
(PID.TID 0000.0001) %MON trcstat_ptracer52_mean       =   6.1390049102194800E-06
(PID.TID 0000.0001) %MON trcstat_ptracer52_sd         =   4.5731827441628615E-05
(PID.TID 0000.0001) %MON trcstat_ptracer52_del2       =   2.3900008314600899E-07
(PID.TID 0000.0001) %MON trcstat_ptracer53_max        =   3.1248040562837317E-03
(PID.TID 0000.0001) %MON trcstat_ptracer53_min        =   5.5917630808765427E-08
(PID.TID 0000.0001) %MON trcstat_ptracer53_mean       =   6.1389945485508079E-06
(PID.TID 0000.0001) %MON trcstat_ptracer53_sd         =   4.5731502122503800E-05
(PID.TID 0000.0001) %MON trcstat_ptracer53_del2       =   2.3899591779709233E-07
(PID.TID 0000.0001) %MON trcstat_ptracer54_max        =   3.1247098928596736E-03
(PID.TID 0000.0001) %MON trcstat_ptracer54_min        =   5.5917630808751875E-08
(PID.TID 0000.0001) %MON trcstat_ptracer54_mean       =   6.1389852762288323E-06
(PID.TID 0000.0001) %MON trcstat_ptracer54_sd         =   4.5731211035792167E-05
(PID.TID 0000.0001) %MON trcstat_ptracer54_del2       =   2.3899219059847865E-07
(PID.TID 0000.0001) %MON trcstat_ptracer55_max        =   3.1246256358544340E-03
(PID.TID 0000.0001) %MON trcstat_ptracer55_min        =   5.5917630808739739E-08
(PID.TID 0000.0001) %MON trcstat_ptracer55_mean       =   6.1389769785750567E-06
(PID.TID 0000.0001) %MON trcstat_ptracer55_sd         =   4.5730950571616887E-05
(PID.TID 0000.0001) %MON trcstat_ptracer55_del2       =   2.3898885537757502E-07
(PID.TID 0000.0001) %MON trcstat_ptracer56_max        =   3.1245502410415199E-03
(PID.TID 0000.0001) %MON trcstat_ptracer56_min        =   5.5917630808728879E-08
(PID.TID 0000.0001) %MON trcstat_ptracer56_mean       =   6.1389695530137194E-06
(PID.TID 0000.0001) %MON trcstat_ptracer56_sd         =   4.5730717502299210E-05
(PID.TID 0000.0001) %MON trcstat_ptracer56_del2       =   2.3898587084415827E-07
(PID.TID 0000.0001) %MON trcstat_ptracer57_max        =   3.1244827746676140E-03
(PID.TID 0000.0001) %MON trcstat_ptracer57_min        =   5.5917630808719158E-08
(PID.TID 0000.0001) %MON trcstat_ptracer57_mean       =   6.1389629077887243E-06
(PID.TID 0000.0001) %MON trcstat_ptracer57_sd         =   4.5730508941588645E-05
(PID.TID 0000.0001) %MON trcstat_ptracer57_del2       =   2.3898320007080105E-07
(PID.TID 0000.0001) %MON trcstat_ptracer58_max        =   3.1244224016854639E-03
(PID.TID 0000.0001) %MON trcstat_ptracer58_min        =   5.5917630808710456E-08
(PID.TID 0000.0001) %MON trcstat_ptracer58_mean       =   6.1389569608175195E-06
(PID.TID 0000.0001) %MON trcstat_ptracer58_sd         =   4.5730322308304108E-05
(PID.TID 0000.0001) %MON trcstat_ptracer58_del2       =   2.3898081002922906E-07
(PID.TID 0000.0001) %MON trcstat_ptracer59_max        =   3.1243683752558747E-03
(PID.TID 0000.0001) %MON trcstat_ptracer59_min        =   5.5917630808702674E-08
(PID.TID 0000.0001) %MON trcstat_ptracer59_mean       =   6.1389516386673325E-06
(PID.TID 0000.0001) %MON trcstat_ptracer59_sd         =   4.5730155293894109E-05
(PID.TID 0000.0001) %MON trcstat_ptracer59_del2       =   2.3897867117649274E-07
(PID.TID 0000.0001) %MON trcstat_ptracer60_max        =   3.1243200273788590E-03
(PID.TID 0000.0001) %MON trcstat_ptracer60_min        =   5.5917630808695706E-08
(PID.TID 0000.0001) %MON trcstat_ptracer60_mean       =   6.1389468756405379E-06
(PID.TID 0000.0001) %MON trcstat_ptracer60_sd         =   4.5730005833484463E-05
(PID.TID 0000.0001) %MON trcstat_ptracer60_del2       =   2.3897675708547513E-07
(PID.TID 0000.0001) %MON trcstat_ptracer61_max        =   3.1242767605300010E-03
(PID.TID 0000.0001) %MON trcstat_ptracer61_min        =   5.5917630808689472E-08
(PID.TID 0000.0001) %MON trcstat_ptracer61_mean       =   6.1389426129575290E-06
(PID.TID 0000.0001) %MON trcstat_ptracer61_sd         =   4.5729872080032451E-05
(PID.TID 0000.0001) %MON trcstat_ptracer61_del2       =   2.3897504411490426E-07
(PID.TID 0000.0001) %MON trcstat_ptracer62_max        =   3.1242380401922043E-03
(PID.TID 0000.0001) %MON trcstat_ptracer62_min        =   5.5917630808683887E-08
(PID.TID 0000.0001) %MON trcstat_ptracer62_mean       =   6.1389387980259617E-06
(PID.TID 0000.0001) %MON trcstat_ptracer62_sd         =   4.5729752381246940E-05
(PID.TID 0000.0001) %MON trcstat_ptracer62_del2       =   2.3897351111458832E-07
(PID.TID 0000.0001) %MON trcstat_ptracer63_max        =   3.1242033881853535E-03
(PID.TID 0000.0001) %MON trcstat_ptracer63_min        =   5.5917630808678891E-08
(PID.TID 0000.0001) %MON trcstat_ptracer63_mean       =   6.1389353837881675E-06
(PID.TID 0000.0001) %MON trcstat_ptracer63_sd         =   4.5729645258973398E-05
(PID.TID 0000.0001) %MON trcstat_ptracer63_del2       =   2.3897213916205663E-07
(PID.TID 0000.0001) %MON trcstat_ptracer64_max        =   3.1241723767073733E-03
(PID.TID 0000.0001) %MON trcstat_ptracer64_min        =   5.5917630808674418E-08
(PID.TID 0000.0001) %MON trcstat_ptracer64_mean       =   6.1389323281372652E-06
(PID.TID 0000.0001) %MON trcstat_ptracer64_sd         =   4.5729549390776689E-05
(PID.TID 0000.0001) %MON trcstat_ptracer64_del2       =   2.3897091132721730E-07
(PID.TID 0000.0001) %MON trcstat_ptracer65_max        =   3.1241446230097637E-03
(PID.TID 0000.0001) %MON trcstat_ptracer65_min        =   5.5917630808670414E-08
(PID.TID 0000.0001) %MON trcstat_ptracer65_mean       =   6.1389295933952754E-06
(PID.TID 0000.0001) %MON trcstat_ptracer65_sd         =   4.5729463593485251E-05
(PID.TID 0000.0001) %MON trcstat_ptracer65_del2       =   2.3896981246200976E-07
(PID.TID 0000.0001) %MON trcstat_ptracer66_max        =   3.1241197846392436E-03
(PID.TID 0000.0001) %MON trcstat_ptracer66_min        =   5.5917630808666834E-08
(PID.TID 0000.0001) %MON trcstat_ptracer66_mean       =   6.1389271458465742E-06
(PID.TID 0000.0001) %MON trcstat_ptracer66_sd         =   4.5729386808484957E-05
(PID.TID 0000.0001) %MON trcstat_ptracer66_del2       =   2.3896882901238433E-07
(PID.TID 0000.0001) %MON trcstat_ptracer67_max        =   3.1240975551846462E-03
(PID.TID 0000.0001) %MON trcstat_ptracer67_min        =   5.5917630808663631E-08
(PID.TID 0000.0001) %MON trcstat_ptracer67_mean       =   6.1389249553203790E-06
(PID.TID 0000.0001) %MON trcstat_ptracer67_sd         =   4.5729318088571266E-05
(PID.TID 0000.0001) %MON trcstat_ptracer67_del2       =   2.3896794885020551E-07
(PID.TID 0000.0001) %MON trcstat_ptracer68_max        =   3.1240776604748739E-03
(PID.TID 0000.0001) %MON trcstat_ptracer68_min        =   5.5917630808660759E-08
(PID.TID 0000.0001) %MON trcstat_ptracer68_mean       =   6.1389229948176002E-06
(PID.TID 0000.0001) %MON trcstat_ptracer68_sd         =   4.5729256586199907E-05
(PID.TID 0000.0001) %MON trcstat_ptracer68_del2       =   2.3896716112295419E-07
(PID.TID 0000.0001) %MON trcstat_ptracer69_max        =   3.1240598551796673E-03
(PID.TID 0000.0001) %MON trcstat_ptracer69_min        =   5.5917630808658185E-08
(PID.TID 0000.0001) %MON trcstat_ptracer69_mean       =   6.1389212401770567E-06
(PID.TID 0000.0001) %MON trcstat_ptracer69_sd         =   4.5729201542979214E-05
(PID.TID 0000.0001) %MON trcstat_ptracer69_del2       =   2.3896645611932903E-07
(PID.TID 0000.0001) %MON trcstat_ptracer70_max        =   3.1240439197701541E-03
(PID.TID 0000.0001) %MON trcstat_ptracer70_min        =   5.5917630808655889E-08
(PID.TID 0000.0001) %MON trcstat_ptracer70_mean       =   6.1389196697766554E-06
(PID.TID 0000.0001) %MON trcstat_ptracer70_sd         =   4.5729152280274262E-05
(PID.TID 0000.0001) %MON trcstat_ptracer70_del2       =   2.3896582514905358E-07
(PID.TID 0000.0001) %MON trcstat_ptracer71_max        =   3.1240296578008272E-03
(PID.TID 0000.0001) %MON trcstat_ptracer71_min        =   5.5917630808653831E-08
(PID.TID 0000.0001) %MON trcstat_ptracer71_mean       =   6.1389182642664943E-06
(PID.TID 0000.0001) %MON trcstat_ptracer71_sd         =   4.5729108190807288E-05
(PID.TID 0000.0001) %MON trcstat_ptracer71_del2       =   2.3896526043538112E-07
(PID.TID 0000.0001) %MON trcstat_ptracer72_max        =   3.1240168934787466E-03
(PID.TID 0000.0001) %MON trcstat_ptracer72_min        =   5.5917630808651991E-08
(PID.TID 0000.0001) %MON trcstat_ptracer72_mean       =   6.1389170063297803E-06
(PID.TID 0000.0001) %MON trcstat_ptracer72_sd         =   4.5729068731141691E-05
(PID.TID 0000.0001) %MON trcstat_ptracer72_del2       =   2.3896475501894162E-07
(PID.TID 0000.0001) %MON trcstat_ptracer73_max        =   9.5053809757344749E-04
(PID.TID 0000.0001) %MON trcstat_ptracer73_min        =   1.5370947761431853E-08
(PID.TID 0000.0001) %MON trcstat_ptracer73_mean       =   1.9363702186013430E-06
(PID.TID 0000.0001) %MON trcstat_ptracer73_sd         =   1.3847505157864147E-05
(PID.TID 0000.0001) %MON trcstat_ptracer73_del2       =   6.9764839114500764E-08
(PID.TID 0000.0001) %MON trcstat_ptracer74_max        =   7.9505755521132857E-04
(PID.TID 0000.0001) %MON trcstat_ptracer74_min        =   1.4604850718329450E-08
(PID.TID 0000.0001) %MON trcstat_ptracer74_mean       =   1.6843333633836050E-06
(PID.TID 0000.0001) %MON trcstat_ptracer74_sd         =   1.2150142995941659E-05
(PID.TID 0000.0001) %MON trcstat_ptracer74_del2       =   6.1817102081741038E-08
(PID.TID 0000.0001) %MON trcstat_ptracer75_max        =   6.8679924046746862E-04
(PID.TID 0000.0001) %MON trcstat_ptracer75_min        =   1.3935384207603691E-08
(PID.TID 0000.0001) %MON trcstat_ptracer75_mean       =   1.5022463333577639E-06
(PID.TID 0000.0001) %MON trcstat_ptracer75_sd         =   1.0926956664844526E-05
(PID.TID 0000.0001) %MON trcstat_ptracer75_del2       =   5.6024391794190944E-08
(PID.TID 0000.0001) %MON trcstat_ptracer76_max        =   6.3357690676277354E-04
(PID.TID 0000.0001) %MON trcstat_ptracer76_min        =   1.3495117605155549E-08
(PID.TID 0000.0001) %MON trcstat_ptracer76_mean       =   1.3725533729796218E-06
(PID.TID 0000.0001) %MON trcstat_ptracer76_sd         =   1.0023582268992659E-05
(PID.TID 0000.0001) %MON trcstat_ptracer76_del2       =   5.1304449442429715E-08
(PID.TID 0000.0001) %MON trcstat_ptracer77_max        =   6.0857676231817971E-04
(PID.TID 0000.0001) %MON trcstat_ptracer77_min        =   1.3357056093229697E-08
(PID.TID 0000.0001) %MON trcstat_ptracer77_mean       =   1.2795318260918313E-06
(PID.TID 0000.0001) %MON trcstat_ptracer77_sd         =   9.3531084693762694E-06
(PID.TID 0000.0001) %MON trcstat_ptracer77_del2       =   4.7850278590827031E-08
(PID.TID 0000.0001) %MON trcstat_ptracer78_max        =   6.1742453046598287E-04
(PID.TID 0000.0001) %MON trcstat_ptracer78_min        =   1.3570020765420251E-08
(PID.TID 0000.0001) %MON trcstat_ptracer78_mean       =   1.2140511320132956E-06
(PID.TID 0000.0001) %MON trcstat_ptracer78_sd         =   8.8704832522551829E-06
(PID.TID 0000.0001) %MON trcstat_ptracer78_del2       =   4.5373674155780505E-08
(PID.TID 0000.0001) %MON trcstat_ptracer79_max        =   5.5908454907840726E-04
(PID.TID 0000.0001) %MON trcstat_ptracer79_min        =   1.3119704409367118E-08
(PID.TID 0000.0001) %MON trcstat_ptracer79_mean       =   1.1240150388414176E-06
(PID.TID 0000.0001) %MON trcstat_ptracer79_sd         =   8.2344699244010119E-06
(PID.TID 0000.0001) %MON trcstat_ptracer79_del2       =   4.2277088512489903E-08
(PID.TID 0000.0001) %MON trcstat_ptracer80_max        =   5.0424291711652738E-04
(PID.TID 0000.0001) %MON trcstat_ptracer80_min        =   1.2821807712842588E-08
(PID.TID 0000.0001) %MON trcstat_ptracer80_mean       =   1.0486658748881548E-06
(PID.TID 0000.0001) %MON trcstat_ptracer80_sd         =   7.7080151424735937E-06
(PID.TID 0000.0001) %MON trcstat_ptracer80_del2       =   3.9724877382572222E-08
(PID.TID 0000.0001) %MON trcstat_ptracer81_max        =   4.7510568110100212E-04
(PID.TID 0000.0001) %MON trcstat_ptracer81_min        =   1.2666095002160509E-08
(PID.TID 0000.0001) %MON trcstat_ptracer81_mean       =   9.8964904144469604E-07
(PID.TID 0000.0001) %MON trcstat_ptracer81_sd         =   7.2991494035553071E-06
(PID.TID 0000.0001) %MON trcstat_ptracer81_del2       =   3.7747265973504101E-08
(PID.TID 0000.0001) %MON trcstat_ptracer82_max        =   4.6496600632739009E-04
(PID.TID 0000.0001) %MON trcstat_ptracer82_min        =   1.2530261691225256E-08
(PID.TID 0000.0001) %MON trcstat_ptracer82_mean       =   9.4984846708619995E-07
(PID.TID 0000.0001) %MON trcstat_ptracer82_sd         =   7.0263283241405632E-06
(PID.TID 0000.0001) %MON trcstat_ptracer82_del2       =   3.6468560267013742E-08
(PID.TID 0000.0001) %MON trcstat_ptracer83_max        =   4.6475953194846111E-04
(PID.TID 0000.0001) %MON trcstat_ptracer83_min        =   1.2530509757789808E-08
(PID.TID 0000.0001) %MON trcstat_ptracer83_mean       =   9.4164374983749207E-07
(PID.TID 0000.0001) %MON trcstat_ptracer83_sd         =   6.9766965847779430E-06
(PID.TID 0000.0001) %MON trcstat_ptracer83_del2       =   3.6287632627875298E-08
(PID.TID 0000.0001) %MON trcstat_ptracer84_max        =   4.6448903869635260E-04
(PID.TID 0000.0001) %MON trcstat_ptracer84_min        =   1.2531131868246272E-08
(PID.TID 0000.0001) %MON trcstat_ptracer84_mean       =   9.3065393394886591E-07
(PID.TID 0000.0001) %MON trcstat_ptracer84_sd         =   6.9043884179355997E-06
(PID.TID 0000.0001) %MON trcstat_ptracer84_del2       =   3.5963366491559967E-08
(PID.TID 0000.0001) %MON trcstat_ptracer85_max        =   4.6413470531267111E-04
(PID.TID 0000.0001) %MON trcstat_ptracer85_min        =   1.2531184948800527E-08
(PID.TID 0000.0001) %MON trcstat_ptracer85_mean       =   9.2552518520550921E-07
(PID.TID 0000.0001) %MON trcstat_ptracer85_sd         =   6.8694942952027799E-06
(PID.TID 0000.0001) %MON trcstat_ptracer85_del2       =   3.5784875303358367E-08
(PID.TID 0000.0001) %MON trcstat_ptracer86_max        =   4.6367059384818971E-04
(PID.TID 0000.0001) %MON trcstat_ptracer86_min        =   1.2531314597686317E-08
(PID.TID 0000.0001) %MON trcstat_ptracer86_mean       =   9.2359343019850527E-07
(PID.TID 0000.0001) %MON trcstat_ptracer86_sd         =   6.8566592232439708E-06
(PID.TID 0000.0001) %MON trcstat_ptracer86_del2       =   3.5712152253343972E-08
(PID.TID 0000.0001) %MON trcstat_ptracer87_max        =   4.6306277668180056E-04
(PID.TID 0000.0001) %MON trcstat_ptracer87_min        =   1.2531464476936433E-08
(PID.TID 0000.0001) %MON trcstat_ptracer87_mean       =   9.2354281731275286E-07
(PID.TID 0000.0001) %MON trcstat_ptracer87_sd         =   6.8532281239125725E-06
(PID.TID 0000.0001) %MON trcstat_ptracer87_del2       =   3.5687354236011921E-08
(PID.TID 0000.0001) %MON trcstat_ptracer88_max        =   4.6226690053665395E-04
(PID.TID 0000.0001) %MON trcstat_ptracer88_min        =   1.2531463756529648E-08
(PID.TID 0000.0001) %MON trcstat_ptracer88_mean       =   9.2354304191340411E-07
(PID.TID 0000.0001) %MON trcstat_ptracer88_sd         =   6.8488879899007595E-06
(PID.TID 0000.0001) %MON trcstat_ptracer88_del2       =   3.5655047628283978E-08
(PID.TID 0000.0001) %MON trcstat_ptracer89_max        =   4.6122502590632055E-04
(PID.TID 0000.0001) %MON trcstat_ptracer89_min        =   1.2531462545407224E-08
(PID.TID 0000.0001) %MON trcstat_ptracer89_mean       =   9.2354333622859079E-07
(PID.TID 0000.0001) %MON trcstat_ptracer89_sd         =   6.8432166643927974E-06
(PID.TID 0000.0001) %MON trcstat_ptracer89_del2       =   3.5612842082359851E-08
(PID.TID 0000.0001) %MON trcstat_ptracer90_max        =   4.5986153958939020E-04
(PID.TID 0000.0001) %MON trcstat_ptracer90_min        =   1.2531460499704223E-08
(PID.TID 0000.0001) %MON trcstat_ptracer90_mean       =   9.2354372189730480E-07
(PID.TID 0000.0001) %MON trcstat_ptracer90_sd         =   6.8358123599374540E-06
(PID.TID 0000.0001) %MON trcstat_ptracer90_del2       =   3.5557757447297504E-08
(PID.TID 0000.0001) %MON trcstat_ptracer91_max        =   4.5807789144956655E-04
(PID.TID 0000.0001) %MON trcstat_ptracer91_min        =   1.2531457031455839E-08
(PID.TID 0000.0001) %MON trcstat_ptracer91_mean       =   9.2354422727504245E-07
(PID.TID 0000.0001) %MON trcstat_ptracer91_sd         =   6.8261567083059128E-06
(PID.TID 0000.0001) %MON trcstat_ptracer91_del2       =   3.5485954864070541E-08
(PID.TID 0000.0001) %MON trcstat_ptracer92_max        =   4.5574585710433821E-04
(PID.TID 0000.0001) %MON trcstat_ptracer92_min        =   1.2531451134320693E-08
(PID.TID 0000.0001) %MON trcstat_ptracer92_mean       =   9.2354488951869081E-07
(PID.TID 0000.0001) %MON trcstat_ptracer92_sd         =   6.8135843451270547E-06
(PID.TID 0000.0001) %MON trcstat_ptracer92_del2       =   3.5392517821820879E-08
(PID.TID 0000.0001) %MON trcstat_ptracer93_max        =   4.5269898345679833E-04
(PID.TID 0000.0001) %MON trcstat_ptracer93_min        =   1.2531441084565420E-08
(PID.TID 0000.0001) %MON trcstat_ptracer93_mean       =   9.2354575731838274E-07
(PID.TID 0000.0001) %MON trcstat_ptracer93_sd         =   6.7972471144962753E-06
(PID.TID 0000.0001) %MON trcstat_ptracer93_del2       =   3.5271199420719424E-08
(PID.TID 0000.0001) %MON trcstat_ptracer94_max        =   4.4872184957410027E-04
(PID.TID 0000.0001) %MON trcstat_ptracer94_min        =   1.2531423927931220E-08
(PID.TID 0000.0001) %MON trcstat_ptracer94_mean       =   9.2354689447739888E-07
(PID.TID 0000.0001) %MON trcstat_ptracer94_sd         =   6.7760740356575654E-06
(PID.TID 0000.0001) %MON trcstat_ptracer94_del2       =   3.5114149865311512E-08
(PID.TID 0000.0001) %MON trcstat_ptracer95_max        =   4.4353680229029016E-04
(PID.TID 0000.0001) %MON trcstat_ptracer95_min        =   1.2531394598929549E-08
(PID.TID 0000.0001) %MON trcstat_ptracer95_mean       =   9.2354838460305717E-07
(PID.TID 0000.0001) %MON trcstat_ptracer95_sd         =   6.7487304139893044E-06
(PID.TID 0000.0001) %MON trcstat_ptracer95_del2       =   3.4911660097105054E-08
(PID.TID 0000.0001) %MON trcstat_ptracer96_max        =   4.3678796220148760E-04
(PID.TID 0000.0001) %MON trcstat_ptracer96_min        =   1.2531344409098727E-08
(PID.TID 0000.0001) %MON trcstat_ptracer96_mean       =   9.2355033725390976E-07
(PID.TID 0000.0001) %MON trcstat_ptracer96_sd         =   6.7135835912737194E-06
(PID.TID 0000.0001) %MON trcstat_ptracer96_del2       =   3.4651998537030487E-08
(PID.TID 0000.0001) %MON trcstat_ptracer97_max        =   4.2802264787316941E-04
(PID.TID 0000.0001) %MON trcstat_ptracer97_min        =   1.2531258451851831E-08
(PID.TID 0000.0001) %MON trcstat_ptracer97_mean       =   9.2355289599468376E-07
(PID.TID 0000.0001) %MON trcstat_ptracer97_sd         =   6.6686900017832944E-06
(PID.TID 0000.0001) %MON trcstat_ptracer97_del2       =   3.4321492474579648E-08
(PID.TID 0000.0001) %MON trcstat_ptracer98_max        =   4.7154102182207064E-04
(PID.TID 0000.0001) %MON trcstat_ptracer98_min        =   8.4403963241120985E-09
(PID.TID 0000.0001) %MON trcstat_ptracer98_mean       =   9.2662800437007377E-07
(PID.TID 0000.0001) %MON trcstat_ptracer98_sd         =   6.9024727939776838E-06
(PID.TID 0000.0001) %MON trcstat_ptracer98_del2       =   3.6069773629504949E-08
(PID.TID 0000.0001) %MON trcstat_ptracer99_max        =   4.7153993991597132E-04
(PID.TID 0000.0001) %MON trcstat_ptracer99_min        =   8.4403963241120257E-09
(PID.TID 0000.0001) %MON trcstat_ptracer99_mean       =   9.2662792106865383E-07
(PID.TID 0000.0001) %MON trcstat_ptracer99_sd         =   6.9024696865101552E-06
(PID.TID 0000.0001) %MON trcstat_ptracer99_del2       =   3.6069737327270142E-08
(PID.TID 0000.0001) %MON trcstat_ptracer0a_max        =   4.7153902541418512E-04
(PID.TID 0000.0001) %MON trcstat_ptracer0a_min        =   8.4403963241119629E-09
(PID.TID 0000.0001) %MON trcstat_ptracer0a_mean       =   9.2662784966280366E-07
(PID.TID 0000.0001) %MON trcstat_ptracer0a_sd         =   6.9024670505206272E-06
(PID.TID 0000.0001) %MON trcstat_ptracer0a_del2       =   3.6069706360053414E-08
(PID.TID 0000.0001) %MON trcstat_ptracer0b_max        =   4.7153825003478972E-04
(PID.TID 0000.0001) %MON trcstat_ptracer0b_min        =   8.4403963241119050E-09
(PID.TID 0000.0001) %MON trcstat_ptracer0b_mean       =   9.2662778827695135E-07
(PID.TID 0000.0001) %MON trcstat_ptracer0b_sd         =   6.9024648076156086E-06
(PID.TID 0000.0001) %MON trcstat_ptracer0b_del2       =   3.6069679864577513E-08
(PID.TID 0000.0001) %MON trcstat_ptracer0c_max        =   4.7153759059503182E-04
(PID.TID 0000.0001) %MON trcstat_ptracer0c_min        =   8.4403963241118520E-09
(PID.TID 0000.0001) %MON trcstat_ptracer0c_mean       =   9.2662773535711859E-07
(PID.TID 0000.0001) %MON trcstat_ptracer0c_sd         =   6.9024628933803563E-06
(PID.TID 0000.0001) %MON trcstat_ptracer0c_del2       =   3.6069657128519083E-08
(PID.TID 0000.0001) %MON trcstat_ptracer0d_max        =   4.7153702805226614E-04
(PID.TID 0000.0001) %MON trcstat_ptracer0d_min        =   8.4403963241118074E-09
(PID.TID 0000.0001) %MON trcstat_ptracer0d_mean       =   9.2662768961233623E-07
(PID.TID 0000.0001) %MON trcstat_ptracer0d_sd         =   6.9024612547679148E-06
(PID.TID 0000.0001) %MON trcstat_ptracer0d_del2       =   3.6069637562657098E-08
(PID.TID 0000.0001) %MON trcstat_ptracer0e_max        =   4.7153654672987377E-04
(PID.TID 0000.0001) %MON trcstat_ptracer0e_min        =   8.4403963241117660E-09
(PID.TID 0000.0001) %MON trcstat_ptracer0e_mean       =   9.2662764996717989E-07
(PID.TID 0000.0001) %MON trcstat_ptracer0e_sd         =   6.9024598479891627E-06
(PID.TID 0000.0001) %MON trcstat_ptracer0e_del2       =   3.6069620678335056E-08
(PID.TID 0000.0001) %MON trcstat_ptracer0f_max        =   4.7153613369197101E-04
(PID.TID 0000.0001) %MON trcstat_ptracer0f_min        =   8.4403963241117296E-09
(PID.TID 0000.0001) %MON trcstat_ptracer0f_mean       =   9.2662761552321327E-07
(PID.TID 0000.0001) %MON trcstat_ptracer0f_sd         =   6.9024586368069266E-06
(PID.TID 0000.0001) %MON trcstat_ptracer0f_del2       =   3.6069606069201710E-08
(PID.TID 0000.0001) %MON trcstat_ptracer0g_max        =   4.7153577823785586E-04
(PID.TID 0000.0001) %MON trcstat_ptracer0g_min        =   8.4403963241116965E-09
(PID.TID 0000.0001) %MON trcstat_ptracer0g_mean       =   9.2662758552767131E-07
(PID.TID 0000.0001) %MON trcstat_ptracer0g_sd         =   6.9024575911556071E-06
(PID.TID 0000.0001) %MON trcstat_ptracer0g_del2       =   3.6069593396402159E-08
(PID.TID 0000.0001) %MON trcstat_ptracer0h_max        =   4.7153547149286090E-04
(PID.TID 0000.0001) %MON trcstat_ptracer0h_min        =   8.4403963241116667E-09
(PID.TID 0000.0001) %MON trcstat_ptracer0h_mean       =   9.2662755934793347E-07
(PID.TID 0000.0001) %MON trcstat_ptracer0h_sd         =   6.9024566860221552E-06
(PID.TID 0000.0001) %MON trcstat_ptracer0h_del2       =   3.6069582376550075E-08
(PID.TID 0000.0001) %MON trcstat_ptracer0i_max        =   4.7153520607687131E-04
(PID.TID 0000.0001) %MON trcstat_ptracer0i_min        =   8.4403963241116403E-09
(PID.TID 0000.0001) %MON trcstat_ptracer0i_mean       =   9.2662753645074211E-07
(PID.TID 0000.0001) %MON trcstat_ptracer0i_sd         =   6.9024559005384623E-06
(PID.TID 0000.0001) %MON trcstat_ptracer0i_del2       =   3.6069572771947044E-08
(PID.TID 0000.0001) %MON trcstat_ptracer0j_max        =   4.7153497583544979E-04
(PID.TID 0000.0001) %MON trcstat_ptracer0j_min        =   8.4403963241116171E-09
(PID.TID 0000.0001) %MON trcstat_ptracer0j_mean       =   9.2662751638522171E-07
(PID.TID 0000.0001) %MON trcstat_ptracer0j_sd         =   6.9024552172438524E-06
(PID.TID 0000.0001) %MON trcstat_ptracer0j_del2       =   3.6069564382614382E-08
(PID.TID 0000.0001) %MON trcstat_ptracer0k_max        =   4.7153477562146345E-04
(PID.TID 0000.0001) %MON trcstat_ptracer0k_min        =   8.4403963241115956E-09
(PID.TID 0000.0001) %MON trcstat_ptracer0k_mean       =   9.2662749876896823E-07
(PID.TID 0000.0001) %MON trcstat_ptracer0k_sd         =   6.9024546214855091E-06
(PID.TID 0000.0001) %MON trcstat_ptracer0k_del2       =   3.6069557039794547E-08
(PID.TID 0000.0001) %MON trcstat_ptracer0l_max        =   4.7153460111747992E-04
(PID.TID 0000.0001) %MON trcstat_ptracer0l_min        =   8.4403963241115758E-09
(PID.TID 0000.0001) %MON trcstat_ptracer0l_mean       =   9.2662748327665918E-07
(PID.TID 0000.0001) %MON trcstat_ptracer0l_sd         =   6.9024541009297638E-06
(PID.TID 0000.0001) %MON trcstat_ptracer0l_del2       =   3.6069550600638164E-08
(PID.TID 0000.0001) %MON trcstat_ptracer0m_max        =   4.7153444869110317E-04
(PID.TID 0000.0001) %MON trcstat_ptracer0m_min        =   8.4403963241115592E-09
(PID.TID 0000.0001) %MON trcstat_ptracer0m_mean       =   9.2662746963068597E-07
(PID.TID 0000.0001) %MON trcstat_ptracer0m_sd         =   6.9024536451631359E-06
(PID.TID 0000.0001) %MON trcstat_ptracer0m_del2       =   3.6069544943854648E-08
(PID.TID 0000.0001) %MON trcstat_ptracer0n_max        =   4.7153431527694709E-04
(PID.TID 0000.0001) %MON trcstat_ptracer0n_min        =   8.4403963241115443E-09
(PID.TID 0000.0001) %MON trcstat_ptracer0n_mean       =   9.2662745759346275E-07
(PID.TID 0000.0001) %MON trcstat_ptracer0n_sd         =   6.9024532453664994E-06
(PID.TID 0000.0001) %MON trcstat_ptracer0n_del2       =   3.6069539966143680E-08
(PID.TID 0000.0001) %MON trcstat_ptracer0o_max        =   4.7153419828017224E-04
(PID.TID 0000.0001) %MON trcstat_ptracer0o_min        =   8.4403963241115311E-09
(PID.TID 0000.0001) %MON trcstat_ptracer0o_mean       =   9.2662744696104748E-07
(PID.TID 0000.0001) %MON trcstat_ptracer0o_sd         =   6.9024528940478811E-06
(PID.TID 0000.0001) %MON trcstat_ptracer0o_del2       =   3.6069535579260228E-08
(PID.TID 0000.0001) %MON trcstat_ptracer0p_max        =   4.7153409549749811E-04
(PID.TID 0000.0001) %MON trcstat_ptracer0p_min        =   8.4403963241115195E-09
(PID.TID 0000.0001) %MON trcstat_ptracer0p_mean       =   9.2662743755788232E-07
(PID.TID 0000.0001) %MON trcstat_ptracer0p_sd         =   6.9024525848234655E-06
(PID.TID 0000.0001) %MON trcstat_ptracer0p_del2       =   3.6069531707596485E-08
(PID.TID 0000.0001) %MON trcstat_ptracer0q_max        =   4.7153400505239347E-04
(PID.TID 0000.0001) %MON trcstat_ptracer0q_min        =   8.4403963241115079E-09
(PID.TID 0000.0001) %MON trcstat_ptracer0q_mean       =   9.2662742923241919E-07
(PID.TID 0000.0001) %MON trcstat_ptracer0q_sd         =   6.9024523122369238E-06
(PID.TID 0000.0001) %MON trcstat_ptracer0q_del2       =   3.6069528286184553E-08
(PID.TID 0000.0001) %MON trcstat_ptracer0r_max        =   4.7153392534178567E-04
(PID.TID 0000.0001) %MON trcstat_ptracer0r_min        =   8.4403963241114980E-09
(PID.TID 0000.0001) %MON trcstat_ptracer0r_mean       =   9.2662742185350745E-07
(PID.TID 0000.0001) %MON trcstat_ptracer0r_sd         =   6.9024520716114137E-06
(PID.TID 0000.0001) %MON trcstat_ptracer0r_del2       =   3.6069525259041114E-08
(PID.TID 0000.0001) %MON trcstat_ptracer0s_max        =   4.7153385499214279E-04
(PID.TID 0000.0001) %MON trcstat_ptracer0s_min        =   8.4403963241114897E-09
(PID.TID 0000.0001) %MON trcstat_ptracer0s_mean       =   9.2662741530734323E-07
(PID.TID 0000.0001) %MON trcstat_ptracer0s_sd         =   6.9024518589260739E-06
(PID.TID 0000.0001) %MON trcstat_ptracer0s_del2       =   3.6069522577794371E-08
(PID.TID 0000.0001) %MON trcstat_ptracer0t_max        =   4.7153379282319105E-04
(PID.TID 0000.0001) %MON trcstat_ptracer0t_min        =   8.4403963241114815E-09
(PID.TID 0000.0001) %MON trcstat_ptracer0t_mean       =   9.2662740949494205E-07
(PID.TID 0000.0001) %MON trcstat_ptracer0t_sd         =   6.9024516707146051E-06
(PID.TID 0000.0001) %MON trcstat_ptracer0t_del2       =   3.6069520200539375E-08
(PID.TID 0000.0001) %MON trcstat_ptracer0u_max        =   4.7153373781786583E-04
(PID.TID 0000.0001) %MON trcstat_ptracer0u_min        =   8.4403963241114748E-09
(PID.TID 0000.0001) %MON trcstat_ptracer0u_mean       =   9.2662740433000799E-07
(PID.TID 0000.0001) %MON trcstat_ptracer0u_sd         =   6.9024515039808323E-06
(PID.TID 0000.0001) %MON trcstat_ptracer0u_del2       =   3.6069518090882913E-08
(PID.TID 0000.0001) %MON trcstat_ptracer0v_max        =   4.7153368909735887E-04
(PID.TID 0000.0001) %MON trcstat_ptracer0v_min        =   8.4403963241114682E-09
(PID.TID 0000.0001) %MON trcstat_ptracer0v_mean       =   9.2662739973715585E-07
(PID.TID 0000.0001) %MON trcstat_ptracer0v_sd         =   6.9024513561278322E-06
(PID.TID 0000.0001) %MON trcstat_ptracer0v_del2       =   3.6069516217144012E-08
(PID.TID 0000.0001) %MON trcstat_ptracer0w_max        =   4.7153364590034048E-04
(PID.TID 0000.0001) %MON trcstat_ptracer0w_min        =   8.4403963241114633E-09
(PID.TID 0000.0001) %MON trcstat_ptracer0w_mean       =   9.2662739565037774E-07
(PID.TID 0000.0001) %MON trcstat_ptracer0w_sd         =   6.9024512248994834E-06
(PID.TID 0000.0001) %MON trcstat_ptracer0w_del2       =   3.6069514551681196E-08
(PID.TID 0000.0001) %MON trcstat_ptracer0x_max        =   4.7153360756560926E-04
(PID.TID 0000.0001) %MON trcstat_ptracer0x_min        =   8.4403963241114583E-09
(PID.TID 0000.0001) %MON trcstat_ptracer0x_mean       =   9.2662739201179196E-07
(PID.TID 0000.0001) %MON trcstat_ptracer0x_sd         =   6.9024511083311472E-06
(PID.TID 0000.0001) %MON trcstat_ptracer0x_del2       =   3.6069513070327430E-08
(PID.TID 0000.0001) %MON trcstat_ptracer0y_max        =   4.7153357351756070E-04
(PID.TID 0000.0001) %MON trcstat_ptracer0y_min        =   8.4403963241114533E-09
(PID.TID 0000.0001) %MON trcstat_ptracer0y_mean       =   9.2662738877053145E-07
(PID.TID 0000.0001) %MON trcstat_ptracer0y_sd         =   6.9024510047078545E-06
(PID.TID 0000.0001) %MON trcstat_ptracer0y_del2       =   3.6069511751909848E-08
(PID.TID 0000.0001) %MON trcstat_ptracer0z_max        =   4.7153354325398222E-04
(PID.TID 0000.0001) %MON trcstat_ptracer0z_min        =   8.4403963241114500E-09
(PID.TID 0000.0001) %MON trcstat_ptracer0z_mean       =   9.2662738588182924E-07
(PID.TID 0000.0001) %MON trcstat_ptracer0z_sd         =   6.9024509125298778E-06
(PID.TID 0000.0001) %MON trcstat_ptracer0z_del2       =   3.6069510577846334E-08
(PID.TID 0000.0001) %MON trcstat_ptracer0A_max        =   4.7153351633576847E-04
(PID.TID 0000.0001) %MON trcstat_ptracer0A_min        =   8.4403963241114467E-09
(PID.TID 0000.0001) %MON trcstat_ptracer0A_mean       =   9.2662738330622895E-07
(PID.TID 0000.0001) %MON trcstat_ptracer0A_sd         =   6.9024508304827886E-06
(PID.TID 0000.0001) %MON trcstat_ptracer0A_del2       =   3.6069509531798681E-08
(PID.TID 0000.0001) %MON trcstat_ptracer0B_max        =   4.7153349237823080E-04
(PID.TID 0000.0001) %MON trcstat_ptracer0B_min        =   8.4403963241114434E-09
(PID.TID 0000.0001) %MON trcstat_ptracer0B_mean       =   9.2662738100890418E-07
(PID.TID 0000.0001) %MON trcstat_ptracer0B_sd         =   6.9024507574127468E-06
(PID.TID 0000.0001) %MON trcstat_ptracer0B_del2       =   3.6069508599380101E-08
(PID.TID 0000.0001) %MON trcstat_ptracer0C_max        =   4.1486107626262025E-08
(PID.TID 0000.0001) %MON trcstat_ptracer0C_min        =   6.2297508077238360E-13
(PID.TID 0000.0001) %MON trcstat_ptracer0C_mean       =   7.8308661510746180E-11
(PID.TID 0000.0001) %MON trcstat_ptracer0C_sd         =   5.6648465843685639E-10
(PID.TID 0000.0001) %MON trcstat_ptracer0C_del2       =   2.8740561583255819E-12
(PID.TID 0000.0001) %MON trcstat_ptracer0D_max        =   3.9947520032835008E-08
(PID.TID 0000.0001) %MON trcstat_ptracer0D_min        =   6.0764982885828596E-13
(PID.TID 0000.0001) %MON trcstat_ptracer0D_mean       =   7.4611934946481647E-11
(PID.TID 0000.0001) %MON trcstat_ptracer0D_sd         =   5.3894216083825905E-10
(PID.TID 0000.0001) %MON trcstat_ptracer0D_del2       =   2.7294893462272179E-12
(PID.TID 0000.0001) %MON trcstat_ptracer0E_max        =   3.8320857998397954E-08
(PID.TID 0000.0001) %MON trcstat_ptracer0E_min        =   5.9914723401938306E-13
(PID.TID 0000.0001) %MON trcstat_ptracer0E_mean       =   7.0759738260435257E-11
(PID.TID 0000.0001) %MON trcstat_ptracer0E_sd         =   5.1122121385100751E-10
(PID.TID 0000.0001) %MON trcstat_ptracer0E_del2       =   2.5885858505506301E-12
(PID.TID 0000.0001) %MON trcstat_ptracer0F_max        =   3.5601249558849077E-08
(PID.TID 0000.0001) %MON trcstat_ptracer0F_min        =   5.9912976294844009E-13
(PID.TID 0000.0001) %MON trcstat_ptracer0F_mean       =   6.6356788994967529E-11
(PID.TID 0000.0001) %MON trcstat_ptracer0F_sd         =   4.8020676571768062E-10
(PID.TID 0000.0001) %MON trcstat_ptracer0F_del2       =   2.4367458616398066E-12
(PID.TID 0000.0001) %MON trcstat_ptracer0G_max        =   3.2871761117098776E-08
(PID.TID 0000.0001) %MON trcstat_ptracer0G_min        =   6.0926804015950095E-13
(PID.TID 0000.0001) %MON trcstat_ptracer0G_mean       =   6.2219462588709346E-11
(PID.TID 0000.0001) %MON trcstat_ptracer0G_sd         =   4.5129688860339149E-10
(PID.TID 0000.0001) %MON trcstat_ptracer0G_del2       =   2.2966015606004611E-12
(PID.TID 0000.0001) %MON trcstat_ptracer0H_max        =   3.1130658213130357E-08
(PID.TID 0000.0001) %MON trcstat_ptracer0H_min        =   6.3153798906765267E-13
(PID.TID 0000.0001) %MON trcstat_ptracer0H_mean       =   5.8930828820959578E-11
(PID.TID 0000.0001) %MON trcstat_ptracer0H_sd         =   4.2842855600716029E-10
(PID.TID 0000.0001) %MON trcstat_ptracer0H_del2       =   2.1851734277528486E-12
(PID.TID 0000.0001) %MON trcstat_ptracer0I_max        =   2.8676700859354636E-08
(PID.TID 0000.0001) %MON trcstat_ptracer0I_min        =   6.2348883706440311E-13
(PID.TID 0000.0001) %MON trcstat_ptracer0I_mean       =   5.5606750094959314E-11
(PID.TID 0000.0001) %MON trcstat_ptracer0I_sd         =   4.0539993977389670E-10
(PID.TID 0000.0001) %MON trcstat_ptracer0I_del2       =   2.0745758247549944E-12
(PID.TID 0000.0001) %MON trcstat_ptracer0J_max        =   2.6514404861894248E-08
(PID.TID 0000.0001) %MON trcstat_ptracer0J_min        =   6.1226714794532743E-13
(PID.TID 0000.0001) %MON trcstat_ptracer0J_mean       =   5.2765156065785291E-11
(PID.TID 0000.0001) %MON trcstat_ptracer0J_sd         =   3.8578088497992887E-10
(PID.TID 0000.0001) %MON trcstat_ptracer0J_del2       =   1.9804095593801750E-12
(PID.TID 0000.0001) %MON trcstat_ptracer0K_max        =   2.4646140420931878E-08
(PID.TID 0000.0001) %MON trcstat_ptracer0K_min        =   6.0369491521530027E-13
(PID.TID 0000.0001) %MON trcstat_ptracer0K_mean       =   5.0375851412012938E-11
(PID.TID 0000.0001) %MON trcstat_ptracer0K_sd         =   3.6932401067865320E-10
(PID.TID 0000.0001) %MON trcstat_ptracer0K_del2       =   1.9013667846370437E-12
(PID.TID 0000.0001) %MON trcstat_ptracer0L_max        =   2.2991217321544077E-08
(PID.TID 0000.0001) %MON trcstat_ptracer0L_min        =   5.9276585152599378E-13
(PID.TID 0000.0001) %MON trcstat_ptracer0L_mean       =   4.8358471888019034E-11
(PID.TID 0000.0001) %MON trcstat_ptracer0L_sd         =   3.5545083188836305E-10
(PID.TID 0000.0001) %MON trcstat_ptracer0L_del2       =   1.8346716253752492E-12
(PID.TID 0000.0001) %MON trcstat_ptracer0M_max        =   2.2433340065758164E-08
(PID.TID 0000.0001) %MON trcstat_ptracer0M_min        =   5.8393648645204055E-13
(PID.TID 0000.0001) %MON trcstat_ptracer0M_mean       =   4.6947312835770401E-11
(PID.TID 0000.0001) %MON trcstat_ptracer0M_sd         =   3.4565126821660714E-10
(PID.TID 0000.0001) %MON trcstat_ptracer0M_del2       =   1.7868538642773310E-12
(PID.TID 0000.0001) %MON trcstat_ptracer0N_max        =   2.2023455046782914E-08
(PID.TID 0000.0001) %MON trcstat_ptracer0N_min        =   5.7684761095574452E-13
(PID.TID 0000.0001) %MON trcstat_ptracer0N_mean       =   4.5538083012942944E-11
(PID.TID 0000.0001) %MON trcstat_ptracer0N_sd         =   3.3594815435371574E-10
(PID.TID 0000.0001) %MON trcstat_ptracer0N_del2       =   1.7400352522066681E-12
(PID.TID 0000.0001) %MON trcstat_ptracer0O_max        =   2.1683751757718621E-08
(PID.TID 0000.0001) %MON trcstat_ptracer0O_min        =   5.7118502705072459E-13
(PID.TID 0000.0001) %MON trcstat_ptracer0O_mean       =   4.4423892303025065E-11
(PID.TID 0000.0001) %MON trcstat_ptracer0O_sd         =   3.2823459350952084E-10
(PID.TID 0000.0001) %MON trcstat_ptracer0O_del2       =   1.7025736313063997E-12
(PID.TID 0000.0001) %MON trcstat_ptracer0P_max        =   2.1400789952163116E-08
(PID.TID 0000.0001) %MON trcstat_ptracer0P_min        =   5.6673712592318973E-13
(PID.TID 0000.0001) %MON trcstat_ptracer0P_mean       =   4.3548791463153793E-11
(PID.TID 0000.0001) %MON trcstat_ptracer0P_sd         =   3.2211606779480648E-10
(PID.TID 0000.0001) %MON trcstat_ptracer0P_del2       =   1.6726068293729934E-12
(PID.TID 0000.0001) %MON trcstat_ptracer0Q_max        =   2.1162713045458078E-08
(PID.TID 0000.0001) %MON trcstat_ptracer0Q_min        =   5.6327681253865532E-13
(PID.TID 0000.0001) %MON trcstat_ptracer0Q_mean       =   4.2866341662158272E-11
(PID.TID 0000.0001) %MON trcstat_ptracer0Q_sd         =   3.1726732386094046E-10
(PID.TID 0000.0001) %MON trcstat_ptracer0Q_del2       =   1.6485933181638467E-12
(PID.TID 0000.0001) %MON trcstat_ptracer0R_max        =   2.0958803158550333E-08
(PID.TID 0000.0001) %MON trcstat_ptracer0R_min        =   5.6061172123868309E-13
(PID.TID 0000.0001) %MON trcstat_ptracer0R_mean       =   4.2338128871592009E-11
(PID.TID 0000.0001) %MON trcstat_ptracer0R_sd         =   3.1341859653787355E-10
(PID.TID 0000.0001) %MON trcstat_ptracer0R_del2       =   1.6292438524230621E-12
(PID.TID 0000.0001) %MON trcstat_ptracer0S_max        =   2.0779070835012338E-08
(PID.TID 0000.0001) %MON trcstat_ptracer0S_min        =   5.5858002704943240E-13
(PID.TID 0000.0001) %MON trcstat_ptracer0S_mean       =   4.1932516801988590E-11
(PID.TID 0000.0001) %MON trcstat_ptracer0S_sd         =   3.1034431526969772E-10
(PID.TID 0000.0001) %MON trcstat_ptracer0S_del2       =   1.6134651666055759E-12
(PID.TID 0000.0001) %MON trcstat_ptracer0T_max        =   2.0613861787520684E-08
(PID.TID 0000.0001) %MON trcstat_ptracer0T_min        =   5.5704694226919735E-13
(PID.TID 0000.0001) %MON trcstat_ptracer0T_mean       =   4.1623594071255543E-11
(PID.TID 0000.0001) %MON trcstat_ptracer0T_sd         =   3.0785377302284409E-10
(PID.TID 0000.0001) %MON trcstat_ptracer0T_del2       =   1.6003132078912595E-12
(PID.TID 0000.0001) %MON trcstat_ptracer0U_max        =   2.0453459916814918E-08
(PID.TID 0000.0001) %MON trcstat_ptracer0U_min        =   5.5590158705786004E-13
(PID.TID 0000.0001) %MON trcstat_ptracer0U_mean       =   4.1390279304934683E-11
(PID.TID 0000.0001) %MON trcstat_ptracer0U_sd         =   3.0578327348319789E-10
(PID.TID 0000.0001) %MON trcstat_ptracer0U_del2       =   1.5889534807459013E-12
(PID.TID 0000.0001) %MON trcstat_ptracer0V_max        =   2.0287662765604524E-08
(PID.TID 0000.0001) %MON trcstat_ptracer0V_min        =   5.5505403842199180E-13
(PID.TID 0000.0001) %MON trcstat_ptracer0V_mean       =   4.1215555028157209E-11
(PID.TID 0000.0001) %MON trcstat_ptracer0V_sd         =   3.0398934290196921E-10
(PID.TID 0000.0001) %MON trcstat_ptracer0V_del2       =   1.5786263897850730E-12
(PID.TID 0000.0001) %MON trcstat_ptracer0W_max        =   2.0105303487793156E-08
(PID.TID 0000.0001) %MON trcstat_ptracer0W_min        =   5.5443247508882075E-13
(PID.TID 0000.0001) %MON trcstat_ptracer0W_mean       =   4.1085807404591240E-11
(PID.TID 0000.0001) %MON trcstat_ptracer0W_sd         =   3.0234268850441351E-10
(PID.TID 0000.0001) %MON trcstat_ptracer0W_del2       =   1.5686160034180155E-12
(PID.TID 0000.0001) %MON trcstat_ptracer0X_max        =   1.9893693394933913E-08
(PID.TID 0000.0001) %MON trcstat_ptracer0X_min        =   5.5398042256179394E-13
(PID.TID 0000.0001) %MON trcstat_ptracer0X_mean       =   4.0990254274920601E-11
(PID.TID 0000.0001) %MON trcstat_ptracer0X_sd         =   3.0072270900793080E-10
(PID.TID 0000.0001) %MON trcstat_ptracer0X_del2       =   1.5582215029295692E-12
(PID.TID 0000.0001) %MON trcstat_ptracer0Y_max        =   1.9637962475815489E-08
(PID.TID 0000.0001) %MON trcstat_ptracer0Y_min        =   5.5365415185811003E-13
(PID.TID 0000.0001) %MON trcstat_ptracer0Y_mean       =   4.0920448625857168E-11
(PID.TID 0000.0001) %MON trcstat_ptracer0Y_sd         =   2.9901252979187286E-10
(PID.TID 0000.0001) %MON trcstat_ptracer0Y_del2       =   1.5467319088166115E-12
(PID.TID 0000.0001) %MON trcstat_ptracer0Z_max        =   1.9320284054094093E-08
(PID.TID 0000.0001) %MON trcstat_ptracer0Z_min        =   5.5342029888262031E-13
(PID.TID 0000.0001) %MON trcstat_ptracer0Z_mean       =   4.0869848447056560E-11
(PID.TID 0000.0001) %MON trcstat_ptracer0Z_sd         =   2.9709477516823461E-10
(PID.TID 0000.0001) %MON trcstat_ptracer0Z_del2       =   1.5334068220454286E-12
(PID.TID 0000.0001) %MON trcstat_ptracer1a_max        =   1.8918987988174915E-08
(PID.TID 0000.0001) %MON trcstat_ptracer1a_min        =   5.5325375953749276E-13
(PID.TID 0000.0001) %MON trcstat_ptracer1a_mean       =   4.0833446684687315E-11
(PID.TID 0000.0001) %MON trcstat_ptracer1a_sd         =   2.9484865170250278E-10
(PID.TID 0000.0001) %MON trcstat_ptracer1a_del2       =   1.5174694800287186E-12
(PID.TID 0000.0001) %MON trcstat_ptracer1b_max        =   2.1070106588552115E-08
(PID.TID 0000.0001) %MON trcstat_ptracer1b_min        =   3.7236961450061576E-13
(PID.TID 0000.0001) %MON trcstat_ptracer1b_mean       =   4.0906606472524401E-11
(PID.TID 0000.0001) %MON trcstat_ptracer1b_sd         =   3.0534223054738642E-10
(PID.TID 0000.0001) %MON trcstat_ptracer1b_del2       =   1.6018943240833738E-12
(PID.TID 0000.0001) %MON trcstat_ptracer1c_max        =   2.1042057054956771E-08
(PID.TID 0000.0001) %MON trcstat_ptracer1c_min        =   3.7236961449667944E-13
(PID.TID 0000.0001) %MON trcstat_ptracer1c_mean       =   4.0903868966476593E-11
(PID.TID 0000.0001) %MON trcstat_ptracer1c_sd         =   3.0525549371796939E-10
(PID.TID 0000.0001) %MON trcstat_ptracer1c_del2       =   1.6007755348659688E-12
(PID.TID 0000.0001) %MON trcstat_ptracer1d_max        =   2.1016951793673716E-08
(PID.TID 0000.0001) %MON trcstat_ptracer1d_min        =   3.7236961449315630E-13
(PID.TID 0000.0001) %MON trcstat_ptracer1d_mean       =   4.0901418816691743E-11
(PID.TID 0000.0001) %MON trcstat_ptracer1d_sd         =   3.0517792905492594E-10
(PID.TID 0000.0001) %MON trcstat_ptracer1d_del2       =   1.5997754646145968E-12
(PID.TID 0000.0001) %MON trcstat_ptracer1e_max        =   2.0994481774782030E-08
(PID.TID 0000.0001) %MON trcstat_ptracer1e_min        =   3.7236961449000302E-13
(PID.TID 0000.0001) %MON trcstat_ptracer1e_mean       =   4.0899225860600901E-11
(PID.TID 0000.0001) %MON trcstat_ptracer1e_sd         =   3.0510856043124492E-10
(PID.TID 0000.0001) %MON trcstat_ptracer1e_del2       =   1.5988813993230277E-12
(PID.TID 0000.0001) %MON trcstat_ptracer1f_max        =   2.0974370399831568E-08
(PID.TID 0000.0001) %MON trcstat_ptracer1f_min        =   3.7236961448718069E-13
(PID.TID 0000.0001) %MON trcstat_ptracer1f_mean       =   4.0897263101423768E-11
(PID.TID 0000.0001) %MON trcstat_ptracer1f_sd         =   3.0504651681812374E-10
(PID.TID 0000.0001) %MON trcstat_ptracer1f_del2       =   1.5980820091089027E-12
(PID.TID 0000.0001) %MON trcstat_ptracer1g_max        =   2.0956370099126725E-08
(PID.TID 0000.0001) %MON trcstat_ptracer1g_min        =   3.7236961448465467E-13
(PID.TID 0000.0001) %MON trcstat_ptracer1g_mean       =   4.0895506375946014E-11
(PID.TID 0000.0001) %MON trcstat_ptracer1g_sd         =   3.0499102073273845E-10
(PID.TID 0000.0001) %MON trcstat_ptracer1g_del2       =   1.5973671932310149E-12
(PID.TID 0000.0001) %MON trcstat_ptracer1h_max        =   2.0940259285856951E-08
(PID.TID 0000.0001) %MON trcstat_ptracer1h_min        =   3.7236961448239381E-13
(PID.TID 0000.0001) %MON trcstat_ptracer1h_mean       =   4.0893934057148574E-11
(PID.TID 0000.0001) %MON trcstat_ptracer1h_sd         =   3.0494137800106271E-10
(PID.TID 0000.0001) %MON trcstat_ptracer1h_del2       =   1.5967279432582107E-12
(PID.TID 0000.0001) %MON trcstat_ptracer1i_max        =   2.0925839629684369E-08
(PID.TID 0000.0001) %MON trcstat_ptracer1i_min        =   3.7236961448037029E-13
(PID.TID 0000.0001) %MON trcstat_ptracer1i_mean       =   4.0892526788037901E-11
(PID.TID 0000.0001) %MON trcstat_ptracer1i_sd         =   3.0489696867761065E-10
(PID.TID 0000.0001) %MON trcstat_ptracer1i_del2       =   1.5961562221224016E-12
(PID.TID 0000.0001) %MON trcstat_ptracer1j_max        =   2.0912933616309684E-08
(PID.TID 0000.0001) %MON trcstat_ptracer1j_min        =   3.7236961447855926E-13
(PID.TID 0000.0001) %MON trcstat_ptracer1j_mean       =   4.0891267243403493E-11
(PID.TID 0000.0001) %MON trcstat_ptracer1j_sd         =   3.0485723898451759E-10
(PID.TID 0000.0001) %MON trcstat_ptracer1j_del2       =   1.5956448570947649E-12
(PID.TID 0000.0001) %MON trcstat_ptracer1k_max        =   2.0901382363041014E-08
(PID.TID 0000.0001) %MON trcstat_ptracer1k_min        =   3.7236961447693822E-13
(PID.TID 0000.0001) %MON trcstat_ptracer1k_mean       =   4.0890139916575110E-11
(PID.TID 0000.0001) %MON trcstat_ptracer1k_sd         =   3.0482169414989588E-10
(PID.TID 0000.0001) %MON trcstat_ptracer1k_del2       =   1.5951874449859449E-12
(PID.TID 0000.0001) %MON trcstat_ptracer1l_max        =   2.0891043663527774E-08
(PID.TID 0000.0001) %MON trcstat_ptracer1l_min        =   3.7236961447548743E-13
(PID.TID 0000.0001) %MON trcstat_ptracer1l_mean       =   4.0889130928555463E-11
(PID.TID 0000.0001) %MON trcstat_ptracer1l_sd         =   3.0478989204065934E-10
(PID.TID 0000.0001) %MON trcstat_ptracer1l_del2       =   1.5947782680949107E-12
(PID.TID 0000.0001) %MON trcstat_ptracer1m_max        =   2.0881790237632004E-08
(PID.TID 0000.0001) %MON trcstat_ptracer1m_min        =   3.7236961447418890E-13
(PID.TID 0000.0001) %MON trcstat_ptracer1m_mean       =   4.0888227857182968E-11
(PID.TID 0000.0001) %MON trcstat_ptracer1m_sd         =   3.0476143749795493E-10
(PID.TID 0000.0001) %MON trcstat_ptracer1m_del2       =   1.5944122196228378E-12
(PID.TID 0000.0001) %MON trcstat_ptracer1n_max        =   2.0873508164926044E-08
(PID.TID 0000.0001) %MON trcstat_ptracer1n_min        =   3.7236961447302674E-13
(PID.TID 0000.0001) %MON trcstat_ptracer1n_mean       =   4.0887419584222942E-11
(PID.TID 0000.0001) %MON trcstat_ptracer1n_sd         =   3.0473597729471439E-10
(PID.TID 0000.0001) %MON trcstat_ptracer1n_del2       =   1.5940847374332150E-12
(PID.TID 0000.0001) %MON trcstat_ptracer1o_max        =   2.0866095482558892E-08
(PID.TID 0000.0001) %MON trcstat_ptracer1o_min        =   3.7236961447198655E-13
(PID.TID 0000.0001) %MON trcstat_ptracer1o_mean       =   4.0886696158505447E-11
(PID.TID 0000.0001) %MON trcstat_ptracer1o_sd         =   3.0471319564459822E-10
(PID.TID 0000.0001) %MON trcstat_ptracer1o_del2       =   1.5937917451809084E-12
(PID.TID 0000.0001) %MON trcstat_ptracer1p_max        =   2.0859460930251581E-08
(PID.TID 0000.0001) %MON trcstat_ptracer1p_min        =   3.7236961447105552E-13
(PID.TID 0000.0001) %MON trcstat_ptracer1p_mean       =   4.0886048673427079E-11
(PID.TID 0000.0001) %MON trcstat_ptracer1p_sd         =   3.0469281020006942E-10
(PID.TID 0000.0001) %MON trcstat_ptracer1p_del2       =   1.5935295999553009E-12
(PID.TID 0000.0001) %MON trcstat_ptracer1q_max        =   2.0853522826988603E-08
(PID.TID 0000.0001) %MON trcstat_ptracer1q_min        =   3.7236961447022223E-13
(PID.TID 0000.0001) %MON trcstat_ptracer1q_mean       =   4.0885469157307880E-11
(PID.TID 0000.0001) %MON trcstat_ptracer1q_sd         =   3.0467456848475849E-10
(PID.TID 0000.0001) %MON trcstat_ptracer1q_del2       =   1.5932950456880457E-12
(PID.TID 0000.0001) %MON trcstat_ptracer1r_max        =   2.0848208065590135E-08
(PID.TID 0000.0001) %MON trcstat_ptracer1r_min        =   3.7236961446947643E-13
(PID.TID 0000.0001) %MON trcstat_ptracer1r_mean       =   4.0884950475259180E-11
(PID.TID 0000.0001) %MON trcstat_ptracer1r_sd         =   3.0465824471172750E-10
(PID.TID 0000.0001) %MON trcstat_ptracer1r_del2       =   1.5930851716675703E-12
(PID.TID 0000.0001) %MON trcstat_ptracer1s_max        =   2.0843451212798229E-08
(PID.TID 0000.0001) %MON trcstat_ptracer1s_min        =   3.7236961446880889E-13
(PID.TID 0000.0001) %MON trcstat_ptracer1s_mean       =   4.0884486241346284E-11
(PID.TID 0000.0001) %MON trcstat_ptracer1s_sd         =   3.0464363694486401E-10
(PID.TID 0000.0001) %MON trcstat_ptracer1s_del2       =   1.5928973755817718E-12
(PID.TID 0000.0001) %MON trcstat_ptracer1t_max        =   2.0839193703806675E-08
(PID.TID 0000.0001) %MON trcstat_ptracer1t_min        =   3.7236961446821148E-13
(PID.TID 0000.0001) %MON trcstat_ptracer1t_mean       =   4.0884070739974789E-11
(PID.TID 0000.0001) %MON trcstat_ptracer1t_sd         =   3.0463056456557983E-10
(PID.TID 0000.0001) %MON trcstat_ptracer1t_del2       =   1.5927293305793965E-12
(PID.TID 0000.0001) %MON trcstat_ptracer1u_max        =   2.0835383121325327E-08
(PID.TID 0000.0001) %MON trcstat_ptracer1u_min        =   3.7236961446767677E-13
(PID.TID 0000.0001) %MON trcstat_ptracer1u_mean       =   4.0883698855525256E-11
(PID.TID 0000.0001) %MON trcstat_ptracer1u_sd         =   3.0461886601129772E-10
(PID.TID 0000.0001) %MON trcstat_ptracer1u_del2       =   1.5925789559008761E-12
(PID.TID 0000.0001) %MON trcstat_ptracer1v_max        =   2.0831972550308761E-08
(PID.TID 0000.0001) %MON trcstat_ptracer1v_min        =   3.7236961446719820E-13
(PID.TID 0000.0001) %MON trcstat_ptracer1v_mean       =   4.0883366009375320E-11
(PID.TID 0000.0001) %MON trcstat_ptracer1v_sd         =   3.0460839675606875E-10
(PID.TID 0000.0001) %MON trcstat_ptracer1v_del2       =   1.5924443906817405E-12
(PID.TID 0000.0001) %MON trcstat_ptracer1w_max        =   2.0828920000409565E-08
(PID.TID 0000.0001) %MON trcstat_ptracer1w_min        =   3.7236961446676982E-13
(PID.TID 0000.0001) %MON trcstat_ptracer1w_mean       =   4.0883068103530538E-11
(PID.TID 0000.0001) %MON trcstat_ptracer1w_sd         =   3.0459902750692291E-10
(PID.TID 0000.0001) %MON trcstat_ptracer1w_del2       =   1.5923239705780422E-12
(PID.TID 0000.0001) %MON trcstat_ptracer1x_max        =   2.0826187889049412E-08
(PID.TID 0000.0001) %MON trcstat_ptracer1x_min        =   3.7236961446638642E-13
(PID.TID 0000.0001) %MON trcstat_ptracer1x_mean       =   4.0882801470173777E-11
(PID.TID 0000.0001) %MON trcstat_ptracer1x_sd         =   3.0459064259259728E-10
(PID.TID 0000.0001) %MON trcstat_ptracer1x_del2       =   1.5922162069031365E-12
(PID.TID 0000.0001) %MON trcstat_ptracer1y_max        =   2.0823742578746549E-08
(PID.TID 0000.0001) %MON trcstat_ptracer1y_min        =   3.7236961446604331E-13
(PID.TID 0000.0001) %MON trcstat_ptracer1y_mean       =   4.0882562826509308E-11
(PID.TID 0000.0001) %MON trcstat_ptracer1y_sd         =   3.0458313852380766E-10
(PID.TID 0000.0001) %MON trcstat_ptracer1y_del2       =   1.5921197680009049E-12
(PID.TID 0000.0001) %MON trcstat_ptracer1z_max        =   2.0821553963005845E-08
(PID.TID 0000.0001) %MON trcstat_ptracer1z_min        =   3.7236961446573620E-13
(PID.TID 0000.0001) %MON trcstat_ptracer1z_mean       =   4.0882349234346010E-11
(PID.TID 0000.0001) %MON trcstat_ptracer1z_sd         =   3.0457642270663487E-10
(PID.TID 0000.0001) %MON trcstat_ptracer1z_del2       =   1.5920334626114198E-12
(PID.TID 0000.0001) %MON trcstat_ptracer1A_max        =   2.0819595095674698E-08
(PID.TID 0000.0001) %MON trcstat_ptracer1A_min        =   3.7236961446546129E-13
(PID.TID 0000.0001) %MON trcstat_ptracer1A_mean       =   4.0882158063924159E-11
(PID.TID 0000.0001) %MON trcstat_ptracer1A_sd         =   3.0457041229249139E-10
(PID.TID 0000.0001) %MON trcstat_ptracer1A_del2       =   1.5919562250125869E-12
(PID.TID 0000.0001) %MON trcstat_ptracer1B_max        =   2.0817841859203154E-08
(PID.TID 0000.0001) %MON trcstat_ptracer1B_min        =   3.7236961446521527E-13
(PID.TID 0000.0001) %MON trcstat_ptracer1B_mean       =   4.0881986961539154E-11
(PID.TID 0000.0001) %MON trcstat_ptracer1B_sd         =   3.0456503315008379E-10
(PID.TID 0000.0001) %MON trcstat_ptracer1B_del2       =   1.5918871017454167E-12
(PID.TID 0000.0001) %MON trcstat_ptracer1C_max        =   2.0816272667725049E-08
(PID.TID 0000.0001) %MON trcstat_ptracer1C_min        =   3.7236961446499510E-13
(PID.TID 0000.0001) %MON trcstat_ptracer1C_mean       =   4.0881833820563488E-11
(PID.TID 0000.0001) %MON trcstat_ptracer1C_sd         =   3.0456021894628835E-10
(PID.TID 0000.0001) %MON trcstat_ptracer1C_del2       =   1.5918252397519166E-12
(PID.TID 0000.0001) %MON trcstat_ptracer1D_max        =   2.0814868201305465E-08
(PID.TID 0000.0001) %MON trcstat_ptracer1D_min        =   3.7236961446479800E-13
(PID.TID 0000.0001) %MON trcstat_ptracer1D_mean       =   4.0881696755509033E-11
(PID.TID 0000.0001) %MON trcstat_ptracer1D_sd         =   3.0455591032430025E-10
(PID.TID 0000.0001) %MON trcstat_ptracer1D_del2       =   1.5917698757735796E-12
(PID.TID 0000.0001) %MON trcstat_ptracer1E_max        =   2.0813611168083437E-08
(PID.TID 0000.0001) %MON trcstat_ptracer1E_min        =   3.7236961446462159E-13
(PID.TID 0000.0001) %MON trcstat_ptracer1E_mean       =   4.0881574078816253E-11
(PID.TID 0000.0001) %MON trcstat_ptracer1E_sd         =   3.0455205416872024E-10
(PID.TID 0000.0001) %MON trcstat_ptracer1E_del2       =   1.5917203268750640E-12
(PID.TID 0000.0001) %MON trcstat_ptracer1F_max        =   5.4807555428461373E-03
(PID.TID 0000.0001) %MON trcstat_ptracer1F_min        =   9.8392580941998415E-08
(PID.TID 0000.0001) %MON trcstat_ptracer1F_mean       =   1.0475063240418823E-05
(PID.TID 0000.0001) %MON trcstat_ptracer1F_sd         =   7.7971329147785853E-05
(PID.TID 0000.0001) %MON trcstat_ptracer1F_del2       =   4.1334975619345819E-07
(PID.TID 0000.0001) %MON trcstat_ptracer1G_max        =   5.4213884944636151E-03
(PID.TID 0000.0001) %MON trcstat_ptracer1G_min        =   1.0151130813957587E-07
(PID.TID 0000.0001) %MON trcstat_ptracer1G_mean       =   1.0343285480716062E-05
(PID.TID 0000.0001) %MON trcstat_ptracer1G_sd         =   7.7054515288239389E-05
(PID.TID 0000.0001) %MON trcstat_ptracer1G_del2       =   4.0772745222239955E-07
(PID.TID 0000.0001) %MON trcstat_ptracer1H_max        =   5.3570439337602659E-03
(PID.TID 0000.0001) %MON trcstat_ptracer1H_min        =   1.0559851078711949E-07
(PID.TID 0000.0001) %MON trcstat_ptracer1H_mean       =   1.0300855876910908E-05
(PID.TID 0000.0001) %MON trcstat_ptracer1H_sd         =   7.6725048827856643E-05
(PID.TID 0000.0001) %MON trcstat_ptracer1H_del2       =   4.0432603512838636E-07
(PID.TID 0000.0001) %MON trcstat_ptracer1I_max        =   5.2499403259295904E-03
(PID.TID 0000.0001) %MON trcstat_ptracer1I_min        =   1.1095511503636018E-07
(PID.TID 0000.0001) %MON trcstat_ptracer1I_mean       =   1.0184317453967100E-05
(PID.TID 0000.0001) %MON trcstat_ptracer1I_sd         =   7.5811644430515335E-05
(PID.TID 0000.0001) %MON trcstat_ptracer1I_del2       =   3.9817775762727575E-07
(PID.TID 0000.0001) %MON trcstat_ptracer1J_max        =   5.1534777904120683E-03
(PID.TID 0000.0001) %MON trcstat_ptracer1J_min        =   1.1797568040726913E-07
(PID.TID 0000.0001) %MON trcstat_ptracer1J_mean       =   1.0094512421914105E-05
(PID.TID 0000.0001) %MON trcstat_ptracer1J_sd         =   7.5060168991902574E-05
(PID.TID 0000.0001) %MON trcstat_ptracer1J_del2       =   3.9302108121642794E-07
(PID.TID 0000.0001) %MON trcstat_ptracer1K_max        =   5.0818495027425900E-03
(PID.TID 0000.0001) %MON trcstat_ptracer1K_min        =   1.2717762638463641E-07
(PID.TID 0000.0001) %MON trcstat_ptracer1K_mean       =   1.0062082675346049E-05
(PID.TID 0000.0001) %MON trcstat_ptracer1K_sd         =   7.4707189503085656E-05
(PID.TID 0000.0001) %MON trcstat_ptracer1K_del2       =   3.8992435818386329E-07
(PID.TID 0000.0001) %MON trcstat_ptracer1L_max        =   5.0133562242012496E-03
(PID.TID 0000.0001) %MON trcstat_ptracer1L_min        =   1.2850800585657763E-07
(PID.TID 0000.0001) %MON trcstat_ptracer1L_mean       =   9.9529394060579498E-06
(PID.TID 0000.0001) %MON trcstat_ptracer1L_sd         =   7.3898448728515652E-05
(PID.TID 0000.0001) %MON trcstat_ptracer1L_del2       =   3.8531612848135421E-07
(PID.TID 0000.0001) %MON trcstat_ptracer1M_max        =   4.9605322024695734E-03
(PID.TID 0000.0001) %MON trcstat_ptracer1M_min        =   1.2991161975472218E-07
(PID.TID 0000.0001) %MON trcstat_ptracer1M_mean       =   9.8625776610262923E-06
(PID.TID 0000.0001) %MON trcstat_ptracer1M_sd         =   7.3241076093130832E-05
(PID.TID 0000.0001) %MON trcstat_ptracer1M_del2       =   3.8164852579501589E-07
(PID.TID 0000.0001) %MON trcstat_ptracer1N_max        =   4.9210551417019199E-03
(PID.TID 0000.0001) %MON trcstat_ptracer1N_min        =   1.3175250829420860E-07
(PID.TID 0000.0001) %MON trcstat_ptracer1N_mean       =   9.7928255705589493E-06
(PID.TID 0000.0001) %MON trcstat_ptracer1N_sd         =   7.2736410942106762E-05
(PID.TID 0000.0001) %MON trcstat_ptracer1N_del2       =   3.7886420194560353E-07
(PID.TID 0000.0001) %MON trcstat_ptracer1O_max        =   4.8978357536430860E-03
(PID.TID 0000.0001) %MON trcstat_ptracer1O_min        =   1.3199064849562492E-07
(PID.TID 0000.0001) %MON trcstat_ptracer1O_mean       =   9.7484463338056647E-06
(PID.TID 0000.0001) %MON trcstat_ptracer1O_sd         =   7.2416236437389557E-05
(PID.TID 0000.0001) %MON trcstat_ptracer1O_del2       =   3.7719480120149765E-07
(PID.TID 0000.0001) %MON trcstat_ptracer1P_max        =   4.8956608041165221E-03
(PID.TID 0000.0001) %MON trcstat_ptracer1P_min        =   1.3199326156649521E-07
(PID.TID 0000.0001) %MON trcstat_ptracer1P_mean       =   9.7415761803449233E-06
(PID.TID 0000.0001) %MON trcstat_ptracer1P_sd         =   7.2369855304917600E-05
(PID.TID 0000.0001) %MON trcstat_ptracer1P_del2       =   3.7702444002534056E-07
(PID.TID 0000.0001) %MON trcstat_ptracer1Q_max        =   4.8928114957729717E-03
(PID.TID 0000.0001) %MON trcstat_ptracer1Q_min        =   1.3199981472204228E-07
(PID.TID 0000.0001) %MON trcstat_ptracer1Q_mean       =   9.7333495946322633E-06
(PID.TID 0000.0001) %MON trcstat_ptracer1Q_sd         =   7.2303500261585441E-05
(PID.TID 0000.0001) %MON trcstat_ptracer1Q_del2       =   3.7669447274164748E-07
(PID.TID 0000.0001) %MON trcstat_ptracer1R_max        =   4.8890790364282287E-03
(PID.TID 0000.0001) %MON trcstat_ptracer1R_min        =   1.3200037386004596E-07
(PID.TID 0000.0001) %MON trcstat_ptracer1R_mean       =   9.7298444110682792E-06
(PID.TID 0000.0001) %MON trcstat_ptracer1R_sd         =   7.2259909842305636E-05
(PID.TID 0000.0001) %MON trcstat_ptracer1R_del2       =   3.7642538618782218E-07
(PID.TID 0000.0001) %MON trcstat_ptracer1S_max        =   4.8841902022049109E-03
(PID.TID 0000.0001) %MON trcstat_ptracer1S_min        =   1.3200173954850042E-07
(PID.TID 0000.0001) %MON trcstat_ptracer1S_mean       =   9.7284076184994405E-06
(PID.TID 0000.0001) %MON trcstat_ptracer1S_sd         =   7.2225244150850071E-05
(PID.TID 0000.0001) %MON trcstat_ptracer1S_del2       =   3.7618204620411555E-07
(PID.TID 0000.0001) %MON trcstat_ptracer1T_max        =   4.8777876080180090E-03
(PID.TID 0000.0001) %MON trcstat_ptracer1T_min        =   1.3200331834041678E-07
(PID.TID 0000.0001) %MON trcstat_ptracer1T_mean       =   9.7283691572564491E-06
(PID.TID 0000.0001) %MON trcstat_ptracer1T_sd         =   7.2190191612752451E-05
(PID.TID 0000.0001) %MON trcstat_ptracer1T_del2       =   3.7592167351915467E-07
(PID.TID 0000.0001) %MON trcstat_ptracer1U_max        =   4.8694040475294464E-03
(PID.TID 0000.0001) %MON trcstat_ptracer1U_min        =   1.3200331075183249E-07
(PID.TID 0000.0001) %MON trcstat_ptracer1U_mean       =   9.7283715231434391E-06
(PID.TID 0000.0001) %MON trcstat_ptracer1U_sd         =   7.2144473726085722E-05
(PID.TID 0000.0001) %MON trcstat_ptracer1U_del2       =   3.7558136378298339E-07
(PID.TID 0000.0001) %MON trcstat_ptracer1V_max        =   4.8584292004528462E-03
(PID.TID 0000.0001) %MON trcstat_ptracer1V_min        =   1.3200329799417280E-07
(PID.TID 0000.0001) %MON trcstat_ptracer1V_mean       =   9.7283746233862392E-06
(PID.TID 0000.0001) %MON trcstat_ptracer1V_sd         =   7.2084733400998240E-05
(PID.TID 0000.0001) %MON trcstat_ptracer1V_del2       =   3.7513678110440860E-07
(PID.TID 0000.0001) %MON trcstat_ptracer1W_max        =   4.8440665762141139E-03
(PID.TID 0000.0001) %MON trcstat_ptracer1W_min        =   1.3200327644525080E-07
(PID.TID 0000.0001) %MON trcstat_ptracer1W_mean       =   9.7283786859240583E-06
(PID.TID 0000.0001) %MON trcstat_ptracer1W_sd         =   7.2006738308910334E-05
(PID.TID 0000.0001) %MON trcstat_ptracer1W_del2       =   3.7455653331775209E-07
(PID.TID 0000.0001) %MON trcstat_ptracer1X_max        =   4.8252780722971289E-03
(PID.TID 0000.0001) %MON trcstat_ptracer1X_min        =   1.3200323991159267E-07
(PID.TID 0000.0001) %MON trcstat_ptracer1X_mean       =   9.7283840094466936E-06
(PID.TID 0000.0001) %MON trcstat_ptracer1X_sd         =   7.1905028088493550E-05
(PID.TID 0000.0001) %MON trcstat_ptracer1X_del2       =   3.7380018284085585E-07
(PID.TID 0000.0001) %MON trcstat_ptracer1Y_max        =   4.8007130050893108E-03
(PID.TID 0000.0001) %MON trcstat_ptracer1Y_min        =   1.3200317779265097E-07
(PID.TID 0000.0001) %MON trcstat_ptracer1Y_mean       =   9.7283909853556900E-06
(PID.TID 0000.0001) %MON trcstat_ptracer1Y_sd         =   7.1772593957812841E-05
(PID.TID 0000.0001) %MON trcstat_ptracer1Y_del2       =   3.7281594037623956E-07
(PID.TID 0000.0001) %MON trcstat_ptracer1Z_max        =   4.7686179992508706E-03
(PID.TID 0000.0001) %MON trcstat_ptracer1Z_min        =   1.3200307193105098E-07
(PID.TID 0000.0001) %MON trcstat_ptracer1Z_mean       =   9.7284001265408980E-06
(PID.TID 0000.0001) %MON trcstat_ptracer1Z_sd         =   7.1600501654593847E-05
(PID.TID 0000.0001) %MON trcstat_ptracer1Z_del2       =   3.7153800264129109E-07
(PID.TID 0000.0001) %MON trcstat_ptracer2a_max        =   4.7267238644912897E-03
(PID.TID 0000.0001) %MON trcstat_ptracer2a_min        =   1.3200289120737187E-07
(PID.TID 0000.0001) %MON trcstat_ptracer2a_mean       =   9.7284121050895679E-06
(PID.TID 0000.0001) %MON trcstat_ptracer2a_sd         =   7.1377469735307134E-05
(PID.TID 0000.0001) %MON trcstat_ptracer2a_del2       =   3.6988368185102039E-07
(PID.TID 0000.0001) %MON trcstat_ptracer2b_max        =   4.6721058717232467E-03
(PID.TID 0000.0001) %MON trcstat_ptracer2b_min        =   1.3200258226302857E-07
(PID.TID 0000.0001) %MON trcstat_ptracer2b_mean       =   9.7284278017007100E-06
(PID.TID 0000.0001) %MON trcstat_ptracer2b_sd         =   7.1089438860480166E-05
(PID.TID 0000.0001) %MON trcstat_ptracer2b_del2       =   3.6775070520776793E-07
(PID.TID 0000.0001) %MON trcstat_ptracer2c_max        =   4.6010152762114478E-03
(PID.TID 0000.0001) %MON trcstat_ptracer2c_min        =   1.3200205357594617E-07
(PID.TID 0000.0001) %MON trcstat_ptracer2c_mean       =   9.7284483704366097E-06
(PID.TID 0000.0001) %MON trcstat_ptracer2c_sd         =   7.0719211016615611E-05
(PID.TID 0000.0001) %MON trcstat_ptracer2c_del2       =   3.6501549518680617E-07
(PID.TID 0000.0001) %MON trcstat_ptracer2d_max        =   4.5086836448127252E-03
(PID.TID 0000.0001) %MON trcstat_ptracer2d_min        =   1.3200114812387889E-07
(PID.TID 0000.0001) %MON trcstat_ptracer2d_mean       =   9.7284753235723135E-06
(PID.TID 0000.0001) %MON trcstat_ptracer2d_sd         =   7.0246313168241425E-05
(PID.TID 0000.0001) %MON trcstat_ptracer2d_del2       =   3.6153402686885217E-07
(PID.TID 0000.0001) // =======================================================
(PID.TID 0000.0001) // End MONITOR ptracers field statistics
(PID.TID 0000.0001) // =======================================================
 Computing Diagnostic #    224  TRAC01       Counter:       1   Parms: SMR     MR      
 Computing Diagnostic #    236  TRAC02       Counter:       1   Parms: SMR     MR      
 Computing Diagnostic #    248  TRAC03       Counter:       1   Parms: SMR     MR      
 Computing Diagnostic #    260  TRAC04       Counter:       1   Parms: SMR     MR      
 Computing Diagnostic #    272  TRAC05       Counter:       1   Parms: SMR     MR      
 Computing Diagnostic #    284  TRAC06       Counter:       1   Parms: SMR     MR      
 Computing Diagnostic #    296  TRAC07       Counter:       1   Parms: SMR     MR      
 Computing Diagnostic #    308  TRAC08       Counter:       1   Parms: SMR     MR      
 Computing Diagnostic #    320  TRAC09       Counter:       1   Parms: SMR     MR      
 Computing Diagnostic #    332  TRAC10       Counter:       1   Parms: SMR     MR      
 Computing Diagnostic #    344  TRAC11       Counter:       1   Parms: SMR     MR      
 Computing Diagnostic #    356  TRAC12       Counter:       1   Parms: SMR     MR      
 Computing Diagnostic #    368  TRAC13       Counter:       1   Parms: SMR     MR      
 Computing Diagnostic #    380  TRAC14       Counter:       1   Parms: SMR     MR      
 Computing Diagnostic #    392  TRAC15       Counter:       1   Parms: SMR     MR      
 Computing Diagnostic #    404  TRAC16       Counter:       1   Parms: SMR     MR      
 Computing Diagnostic #    416  TRAC17       Counter:       1   Parms: SMR     MR      
 Computing Diagnostic #    428  TRAC18       Counter:       1   Parms: SMR     MR      
 Computing Diagnostic #    440  TRAC19       Counter:       1   Parms: SMR     MR      
 Computing Diagnostic #    452  TRAC20       Counter:       1   Parms: SMR     MR      
 Computing Diagnostic #    464  TRAC21       Counter:       1   Parms: SMR     MR      
 Computing Diagnostic #    476  TRAC22       Counter:       1   Parms: SMR     MR      
 Computing Diagnostic #    488  TRAC23       Counter:       1   Parms: SMR     MR      
 Computing Diagnostic #    500  TRAC24       Counter:       1   Parms: SMR     MR      
 Computing Diagnostic #    512  TRAC25       Counter:       1   Parms: SMR     MR      
 Computing Diagnostic #    524  TRAC26       Counter:       1   Parms: SMR     MR      
 Computing Diagnostic #    536  TRAC27       Counter:       1   Parms: SMR     MR      
 Computing Diagnostic #    548  TRAC28       Counter:       1   Parms: SMR     MR      
 Computing Diagnostic #    560  TRAC29       Counter:       1   Parms: SMR     MR      
 Computing Diagnostic #    572  TRAC30       Counter:       1   Parms: SMR     MR      
 Computing Diagnostic #    584  TRAC31       Counter:       1   Parms: SMR     MR      
 Computing Diagnostic #    596  TRAC32       Counter:       1   Parms: SMR     MR      
 Computing Diagnostic #    608  TRAC33       Counter:       1   Parms: SMR     MR      
 Computing Diagnostic #    620  TRAC34       Counter:       1   Parms: SMR     MR      
 Computing Diagnostic #    632  TRAC35       Counter:       1   Parms: SMR     MR      
 Computing Diagnostic #    644  TRAC36       Counter:       1   Parms: SMR     MR      
 Computing Diagnostic #    656  TRAC37       Counter:       1   Parms: SMR     MR      
 Computing Diagnostic #    668  TRAC38       Counter:       1   Parms: SMR     MR      
 Computing Diagnostic #    680  TRAC39       Counter:       1   Parms: SMR     MR      
 Computing Diagnostic #    692  TRAC40       Counter:       1   Parms: SMR     MR      
 Computing Diagnostic #    704  TRAC41       Counter:       1   Parms: SMR     MR      
 Computing Diagnostic #    716  TRAC42       Counter:       1   Parms: SMR     MR      
 Computing Diagnostic #    728  TRAC43       Counter:       1   Parms: SMR     MR      
 Computing Diagnostic #    740  TRAC44       Counter:       1   Parms: SMR     MR      
 Computing Diagnostic #    752  TRAC45       Counter:       1   Parms: SMR     MR      
 Computing Diagnostic #    764  TRAC46       Counter:       1   Parms: SMR     MR      
 Computing Diagnostic #    776  TRAC47       Counter:       1   Parms: SMR     MR      
 Computing Diagnostic #    788  TRAC48       Counter:       1   Parms: SMR     MR      
 Computing Diagnostic #    800  TRAC49       Counter:       1   Parms: SMR     MR      
 Computing Diagnostic #    812  TRAC50       Counter:       1   Parms: SMR     MR      
 Computing Diagnostic #    824  TRAC51       Counter:       1   Parms: SMR     MR      
 Computing Diagnostic #    836  TRAC52       Counter:       1   Parms: SMR     MR      
 Computing Diagnostic #    848  TRAC53       Counter:       1   Parms: SMR     MR      
 Computing Diagnostic #    860  TRAC54       Counter:       1   Parms: SMR     MR      
 Computing Diagnostic #    872  TRAC55       Counter:       1   Parms: SMR     MR      
 Computing Diagnostic #    884  TRAC56       Counter:       1   Parms: SMR     MR      
 Computing Diagnostic #    896  TRAC57       Counter:       1   Parms: SMR     MR      
 Computing Diagnostic #    908  TRAC58       Counter:       1   Parms: SMR     MR      
 Computing Diagnostic #    920  TRAC59       Counter:       1   Parms: SMR     MR      
 Computing Diagnostic #    932  TRAC60       Counter:       1   Parms: SMR     MR      
 Computing Diagnostic #    944  TRAC61       Counter:       1   Parms: SMR     MR      
 Computing Diagnostic #    956  TRAC62       Counter:       1   Parms: SMR     MR      
 Computing Diagnostic #    968  TRAC63       Counter:       1   Parms: SMR     MR      
 Computing Diagnostic #    980  TRAC64       Counter:       1   Parms: SMR     MR      
 Computing Diagnostic #    992  TRAC65       Counter:       1   Parms: SMR     MR      
 Computing Diagnostic #   1004  TRAC66       Counter:       1   Parms: SMR     MR      
 Computing Diagnostic #   1016  TRAC67       Counter:       1   Parms: SMR     MR      
 Computing Diagnostic #   1028  TRAC68       Counter:       1   Parms: SMR     MR      
 Computing Diagnostic #   1040  TRAC69       Counter:       1   Parms: SMR     MR      
 Computing Diagnostic #   1052  TRAC70       Counter:       1   Parms: SMR     MR      
 Computing Diagnostic #   1064  TRAC71       Counter:       1   Parms: SMR     MR      
 Computing Diagnostic #   1076  TRAC72       Counter:       1   Parms: SMR     MR      
 Computing Diagnostic #   1088  TRAC73       Counter:       1   Parms: SMR     MR      
 Computing Diagnostic #   1100  TRAC74       Counter:       1   Parms: SMR     MR      
 Computing Diagnostic #   1112  TRAC75       Counter:       1   Parms: SMR     MR      
 Computing Diagnostic #   1124  TRAC76       Counter:       1   Parms: SMR     MR      
 Computing Diagnostic #   1136  TRAC77       Counter:       1   Parms: SMR     MR      
 Computing Diagnostic #   1148  TRAC78       Counter:       1   Parms: SMR     MR      
 Computing Diagnostic #   1160  TRAC79       Counter:       1   Parms: SMR     MR      
 Computing Diagnostic #   1172  TRAC80       Counter:       1   Parms: SMR     MR      
 Computing Diagnostic #   1184  TRAC81       Counter:       1   Parms: SMR     MR      
 Computing Diagnostic #   1196  TRAC82       Counter:       1   Parms: SMR     MR      
 Computing Diagnostic #   1208  TRAC83       Counter:       1   Parms: SMR     MR      
 Computing Diagnostic #   1220  TRAC84       Counter:       1   Parms: SMR     MR      
 Computing Diagnostic #   1232  TRAC85       Counter:       1   Parms: SMR     MR      
 Computing Diagnostic #   1244  TRAC86       Counter:       1   Parms: SMR     MR      
 Computing Diagnostic #   1256  TRAC87       Counter:       1   Parms: SMR     MR      
 Computing Diagnostic #   1268  TRAC88       Counter:       1   Parms: SMR     MR      
 Computing Diagnostic #   1280  TRAC89       Counter:       1   Parms: SMR     MR      
 Computing Diagnostic #   1292  TRAC90       Counter:       1   Parms: SMR     MR      
 Computing Diagnostic #   1304  TRAC91       Counter:       1   Parms: SMR     MR      
 Computing Diagnostic #   1316  TRAC92       Counter:       1   Parms: SMR     MR      
 Computing Diagnostic #   1328  TRAC93       Counter:       1   Parms: SMR     MR      
 Computing Diagnostic #   1340  TRAC94       Counter:       1   Parms: SMR     MR      
 Computing Diagnostic #   1352  TRAC95       Counter:       1   Parms: SMR     MR      
 Computing Diagnostic #   1364  TRAC96       Counter:       1   Parms: SMR     MR      
 Computing Diagnostic #   1376  TRAC97       Counter:       1   Parms: SMR     MR      
 Computing Diagnostic #   1388  TRAC98       Counter:       1   Parms: SMR     MR      
 Computing Diagnostic #   1400  TRAC99       Counter:       1   Parms: SMR     MR      
 Computing Diagnostic #   1412  TRAC0a       Counter:       1   Parms: SMR     MR      
 Computing Diagnostic #   1424  TRAC0b       Counter:       1   Parms: SMR     MR      
 Computing Diagnostic #   1436  TRAC0c       Counter:       1   Parms: SMR     MR      
 Computing Diagnostic #   1448  TRAC0d       Counter:       1   Parms: SMR     MR      
 Computing Diagnostic #   1460  TRAC0e       Counter:       1   Parms: SMR     MR      
 Computing Diagnostic #   1472  TRAC0f       Counter:       1   Parms: SMR     MR      
 Computing Diagnostic #   1484  TRAC0g       Counter:       1   Parms: SMR     MR      
 Computing Diagnostic #   1496  TRAC0h       Counter:       1   Parms: SMR     MR      
 Computing Diagnostic #   1508  TRAC0i       Counter:       1   Parms: SMR     MR      
 Computing Diagnostic #   1520  TRAC0j       Counter:       1   Parms: SMR     MR      
 Computing Diagnostic #   1532  TRAC0k       Counter:       1   Parms: SMR     MR      
 Computing Diagnostic #   1544  TRAC0l       Counter:       1   Parms: SMR     MR      
 Computing Diagnostic #   1556  TRAC0m       Counter:       1   Parms: SMR     MR      
 Computing Diagnostic #   1568  TRAC0n       Counter:       1   Parms: SMR     MR      
 Computing Diagnostic #   1580  TRAC0o       Counter:       1   Parms: SMR     MR      
 Computing Diagnostic #   1592  TRAC0p       Counter:       1   Parms: SMR     MR      
 Computing Diagnostic #   1604  TRAC0q       Counter:       1   Parms: SMR     MR      
 Computing Diagnostic #   1616  TRAC0r       Counter:       1   Parms: SMR     MR      
 Computing Diagnostic #   1628  TRAC0s       Counter:       1   Parms: SMR     MR      
 Computing Diagnostic #   1640  TRAC0t       Counter:       1   Parms: SMR     MR      
 Computing Diagnostic #   1652  TRAC0u       Counter:       1   Parms: SMR     MR      
 Computing Diagnostic #   1664  TRAC0v       Counter:       1   Parms: SMR     MR      
 Computing Diagnostic #   1676  TRAC0w       Counter:       1   Parms: SMR     MR      
 Computing Diagnostic #   1688  TRAC0x       Counter:       1   Parms: SMR     MR      
 Computing Diagnostic #   1700  TRAC0y       Counter:       1   Parms: SMR     MR      
 Computing Diagnostic #   1712  TRAC0z       Counter:       1   Parms: SMR     MR      
 Computing Diagnostic #   1724  TRAC0A       Counter:       1   Parms: SMR     MR      
 Computing Diagnostic #   1736  TRAC0B       Counter:       1   Parms: SMR     MR      
 Computing Diagnostic #   1748  TRAC0C       Counter:       1   Parms: SMR     MR      
 Computing Diagnostic #   1760  TRAC0D       Counter:       1   Parms: SMR     MR      
 Computing Diagnostic #   1772  TRAC0E       Counter:       1   Parms: SMR     MR      
 Computing Diagnostic #   1784  TRAC0F       Counter:       1   Parms: SMR     MR      
 Computing Diagnostic #   1796  TRAC0G       Counter:       1   Parms: SMR     MR      
 Computing Diagnostic #   1808  TRAC0H       Counter:       1   Parms: SMR     MR      
 Computing Diagnostic #   1820  TRAC0I       Counter:       1   Parms: SMR     MR      
 Computing Diagnostic #   1832  TRAC0J       Counter:       1   Parms: SMR     MR      
 Computing Diagnostic #   1844  TRAC0K       Counter:       1   Parms: SMR     MR      
 Computing Diagnostic #   1856  TRAC0L       Counter:       1   Parms: SMR     MR      
 Computing Diagnostic #   1868  TRAC0M       Counter:       1   Parms: SMR     MR      
 Computing Diagnostic #   1880  TRAC0N       Counter:       1   Parms: SMR     MR      
 Computing Diagnostic #   1892  TRAC0O       Counter:       1   Parms: SMR     MR      
 Computing Diagnostic #   1904  TRAC0P       Counter:       1   Parms: SMR     MR      
 Computing Diagnostic #   1916  TRAC0Q       Counter:       1   Parms: SMR     MR      
 Computing Diagnostic #   1928  TRAC0R       Counter:       1   Parms: SMR     MR      
 Computing Diagnostic #   1940  TRAC0S       Counter:       1   Parms: SMR     MR      
 Computing Diagnostic #   1952  TRAC0T       Counter:       1   Parms: SMR     MR      
 Computing Diagnostic #   1964  TRAC0U       Counter:       1   Parms: SMR     MR      
 Computing Diagnostic #   1976  TRAC0V       Counter:       1   Parms: SMR     MR      
 Computing Diagnostic #   1988  TRAC0W       Counter:       1   Parms: SMR     MR      
 Computing Diagnostic #   2000  TRAC0X       Counter:       1   Parms: SMR     MR      
 Computing Diagnostic #   2012  TRAC0Y       Counter:       1   Parms: SMR     MR      
 Computing Diagnostic #   2024  TRAC0Z       Counter:       1   Parms: SMR     MR      
 Computing Diagnostic #   2036  TRAC1a       Counter:       1   Parms: SMR     MR      
 Computing Diagnostic #   2048  TRAC1b       Counter:       1   Parms: SMR     MR      
 Computing Diagnostic #   2060  TRAC1c       Counter:       1   Parms: SMR     MR      
 Computing Diagnostic #   2072  TRAC1d       Counter:       1   Parms: SMR     MR      
 Computing Diagnostic #   2084  TRAC1e       Counter:       1   Parms: SMR     MR      
 Computing Diagnostic #   2096  TRAC1f       Counter:       1   Parms: SMR     MR      
 Computing Diagnostic #   2108  TRAC1g       Counter:       1   Parms: SMR     MR      
 Computing Diagnostic #   2120  TRAC1h       Counter:       1   Parms: SMR     MR      
 Computing Diagnostic #   2132  TRAC1i       Counter:       1   Parms: SMR     MR      
 Computing Diagnostic #   2144  TRAC1j       Counter:       1   Parms: SMR     MR      
 Computing Diagnostic #   2156  TRAC1k       Counter:       1   Parms: SMR     MR      
 Computing Diagnostic #   2168  TRAC1l       Counter:       1   Parms: SMR     MR      
 Computing Diagnostic #   2180  TRAC1m       Counter:       1   Parms: SMR     MR      
 Computing Diagnostic #   2192  TRAC1n       Counter:       1   Parms: SMR     MR      
 Computing Diagnostic #   2204  TRAC1o       Counter:       1   Parms: SMR     MR      
 Computing Diagnostic #   2216  TRAC1p       Counter:       1   Parms: SMR     MR      
 Computing Diagnostic #   2228  TRAC1q       Counter:       1   Parms: SMR     MR      
 Computing Diagnostic #   2240  TRAC1r       Counter:       1   Parms: SMR     MR      
 Computing Diagnostic #   2252  TRAC1s       Counter:       1   Parms: SMR     MR      
 Computing Diagnostic #   2264  TRAC1t       Counter:       1   Parms: SMR     MR      
 Computing Diagnostic #   2276  TRAC1u       Counter:       1   Parms: SMR     MR      
 Computing Diagnostic #   2288  TRAC1v       Counter:       1   Parms: SMR     MR      
 Computing Diagnostic #   2300  TRAC1w       Counter:       1   Parms: SMR     MR      
 Computing Diagnostic #   2312  TRAC1x       Counter:       1   Parms: SMR     MR      
 Computing Diagnostic #   2324  TRAC1y       Counter:       1   Parms: SMR     MR      
 Computing Diagnostic #   2336  TRAC1z       Counter:       1   Parms: SMR     MR      
 Computing Diagnostic #   2348  TRAC1A       Counter:       1   Parms: SMR     MR      
 Computing Diagnostic #   2360  TRAC1B       Counter:       1   Parms: SMR     MR      
 Computing Diagnostic #   2372  TRAC1C       Counter:       1   Parms: SMR     MR      
 Computing Diagnostic #   2384  TRAC1D       Counter:       1   Parms: SMR     MR      
 Computing Diagnostic #   2396  TRAC1E       Counter:       1   Parms: SMR     MR      
 Computing Diagnostic #   2408  TRAC1F       Counter:       1   Parms: SMR     MR      
 Computing Diagnostic #   2420  TRAC1G       Counter:       1   Parms: SMR     MR      
 Computing Diagnostic #   2432  TRAC1H       Counter:       1   Parms: SMR     MR      
 Computing Diagnostic #   2444  TRAC1I       Counter:       1   Parms: SMR     MR      
 Computing Diagnostic #   2456  TRAC1J       Counter:       1   Parms: SMR     MR      
 Computing Diagnostic #   2468  TRAC1K       Counter:       1   Parms: SMR     MR      
 Computing Diagnostic #   2480  TRAC1L       Counter:       1   Parms: SMR     MR      
 Computing Diagnostic #   2492  TRAC1M       Counter:       1   Parms: SMR     MR      
 Computing Diagnostic #   2504  TRAC1N       Counter:       1   Parms: SMR     MR      
 Computing Diagnostic #   2516  TRAC1O       Counter:       1   Parms: SMR     MR      
 Computing Diagnostic #   2528  TRAC1P       Counter:       1   Parms: SMR     MR      
 Computing Diagnostic #   2540  TRAC1Q       Counter:       1   Parms: SMR     MR      
 Computing Diagnostic #   2552  TRAC1R       Counter:       1   Parms: SMR     MR      
 Computing Diagnostic #   2564  TRAC1S       Counter:       1   Parms: SMR     MR      
 Computing Diagnostic #   2576  TRAC1T       Counter:       1   Parms: SMR     MR      
 Computing Diagnostic #   2588  TRAC1U       Counter:       1   Parms: SMR     MR      
 Computing Diagnostic #   2600  TRAC1V       Counter:       1   Parms: SMR     MR      
 Computing Diagnostic #   2612  TRAC1W       Counter:       1   Parms: SMR     MR      
 Computing Diagnostic #   2624  TRAC1X       Counter:       1   Parms: SMR     MR      
 Computing Diagnostic #   2636  TRAC1Y       Counter:       1   Parms: SMR     MR      
 Computing Diagnostic #   2648  TRAC1Z       Counter:       1   Parms: SMR     MR      
 Computing Diagnostic #   2660  TRAC2a       Counter:       1   Parms: SMR     MR      
 Computing Diagnostic #   2672  TRAC2b       Counter:       1   Parms: SMR     MR      
 Computing Diagnostic #   2684  TRAC2c       Counter:       1   Parms: SMR     MR      
 Computing Diagnostic #   2696  TRAC2d       Counter:       1   Parms: SMR     MR      
(PID.TID 0000.0001) // =======================================================
(PID.TID 0000.0001) // Begin MONITOR EXF statistics
(PID.TID 0000.0001) // =======================================================
(PID.TID 0000.0001) %MON exf_tsnumber                 =               5644801
(PID.TID 0000.0001) %MON exf_time_sec                 =   2.4385540320000000E+11
(PID.TID 0000.0001) %MON exf_ustress_max              =   0.0000000000000000E+00
(PID.TID 0000.0001) %MON exf_ustress_min              =   0.0000000000000000E+00
(PID.TID 0000.0001) %MON exf_ustress_mean             =   0.0000000000000000E+00
(PID.TID 0000.0001) %MON exf_ustress_sd               =   0.0000000000000000E+00
(PID.TID 0000.0001) %MON exf_ustress_del2             =   0.0000000000000000E+00
(PID.TID 0000.0001) %MON exf_vstress_max              =   0.0000000000000000E+00
(PID.TID 0000.0001) %MON exf_vstress_min              =   0.0000000000000000E+00
(PID.TID 0000.0001) %MON exf_vstress_mean             =   0.0000000000000000E+00
(PID.TID 0000.0001) %MON exf_vstress_sd               =   0.0000000000000000E+00
(PID.TID 0000.0001) %MON exf_vstress_del2             =   0.0000000000000000E+00
(PID.TID 0000.0001) %MON exf_hflux_max                =   0.0000000000000000E+00
(PID.TID 0000.0001) %MON exf_hflux_min                =   0.0000000000000000E+00
(PID.TID 0000.0001) %MON exf_hflux_mean               =   0.0000000000000000E+00
(PID.TID 0000.0001) %MON exf_hflux_sd                 =   0.0000000000000000E+00
(PID.TID 0000.0001) %MON exf_hflux_del2               =   0.0000000000000000E+00
(PID.TID 0000.0001) %MON exf_sflux_max                =   0.0000000000000000E+00
(PID.TID 0000.0001) %MON exf_sflux_min                =   0.0000000000000000E+00
(PID.TID 0000.0001) %MON exf_sflux_mean               =   0.0000000000000000E+00
(PID.TID 0000.0001) %MON exf_sflux_sd                 =   0.0000000000000000E+00
(PID.TID 0000.0001) %MON exf_sflux_del2               =   0.0000000000000000E+00
(PID.TID 0000.0001) %MON exf_uwind_max                =   0.0000000000000000E+00
(PID.TID 0000.0001) %MON exf_uwind_min                =   0.0000000000000000E+00
(PID.TID 0000.0001) %MON exf_uwind_mean               =   0.0000000000000000E+00
(PID.TID 0000.0001) %MON exf_uwind_sd                 =   0.0000000000000000E+00
(PID.TID 0000.0001) %MON exf_uwind_del2               =   0.0000000000000000E+00
(PID.TID 0000.0001) %MON exf_vwind_max                =   0.0000000000000000E+00
(PID.TID 0000.0001) %MON exf_vwind_min                =   0.0000000000000000E+00
(PID.TID 0000.0001) %MON exf_vwind_mean               =   0.0000000000000000E+00
(PID.TID 0000.0001) %MON exf_vwind_sd                 =   0.0000000000000000E+00
(PID.TID 0000.0001) %MON exf_vwind_del2               =   0.0000000000000000E+00
(PID.TID 0000.0001) %MON exf_wspeed_max               =   0.0000000000000000E+00
(PID.TID 0000.0001) %MON exf_wspeed_min               =   0.0000000000000000E+00
(PID.TID 0000.0001) %MON exf_wspeed_mean              =   0.0000000000000000E+00
(PID.TID 0000.0001) %MON exf_wspeed_sd                =   0.0000000000000000E+00
(PID.TID 0000.0001) %MON exf_wspeed_del2              =   0.0000000000000000E+00
(PID.TID 0000.0001) %MON exf_evap_max                 =   0.0000000000000000E+00
(PID.TID 0000.0001) %MON exf_evap_min                 =   0.0000000000000000E+00
(PID.TID 0000.0001) %MON exf_evap_mean                =   0.0000000000000000E+00
(PID.TID 0000.0001) %MON exf_evap_sd                  =   0.0000000000000000E+00
(PID.TID 0000.0001) %MON exf_evap_del2                =   0.0000000000000000E+00
(PID.TID 0000.0001) // =======================================================
(PID.TID 0000.0001) // End MONITOR EXF statistics
(PID.TID 0000.0001) // =======================================================
 cg2d: Sum(rhs),rhsMax =  -6.05039573997601E-07  7.54809699793438E+00
(PID.TID 0000.0001)      cg2d_init_res =   1.60348798167039E-02
(PID.TID 0000.0001)      cg2d_iters(min,last) =      -1      22
(PID.TID 0000.0001)      cg2d_last_res =   7.24977513643558E-14
(PID.TID 0000.0001) totgC   -2.5201680299291596E-05  -2.1466772676589904E-23
(PID.TID 0000.0001) totgN    1.5440611726975917E-04   1.3152301671718193E-22
(PID.TID 0000.0001) totgP    0.0000000000000000E+00   0.0000000000000000E+00
(PID.TID 0000.0001) totgFe  -3.7307909499889193E+05  -3.1778849773577300E-13
(PID.TID 0000.0001) totgSi   0.0000000000000000E+00   0.0000000000000000E+00
 fe   0.0000000000000000     
 fe   0.0000000000000000     
(PID.TID 0000.0001) totgC   -4.6162077755595998E-04  -3.9320823758180198E-22
(PID.TID 0000.0001) totgN    1.0321121869173722E-04   8.7915239897381336E-23
(PID.TID 0000.0001) totgP    0.0000000000000000E+00   0.0000000000000000E+00
(PID.TID 0000.0001) totgFe  -3.7309968809682579E+05  -3.1780603892139252E-13
(PID.TID 0000.0001) totgSi   0.0000000000000000E+00   0.0000000000000000E+00
 fe   0.0000000000000000     
 fe   0.0000000000000000     
(PID.TID 0000.0001) // =======================================================
(PID.TID 0000.0001) // Begin MONITOR dynamic field statistics
(PID.TID 0000.0001) // =======================================================
(PID.TID 0000.0001) %MON time_tsnumber                =               5644802
(PID.TID 0000.0001) %MON time_secondsf                =   2.4385544640000000E+11
(PID.TID 0000.0001) %MON dynstat_eta_max              =   9.3669450902032791E-01
(PID.TID 0000.0001) %MON dynstat_eta_min              =  -1.7304083898030715E+00
(PID.TID 0000.0001) %MON dynstat_eta_mean             =   1.6246261649086755E-10
(PID.TID 0000.0001) %MON dynstat_eta_sd               =   6.5170215564504785E-01
(PID.TID 0000.0001) %MON dynstat_eta_del2             =   9.2948657481454404E-04
(PID.TID 0000.0001) %MON dynstat_uvel_max             =   1.5520061118668546E-01
(PID.TID 0000.0001) %MON dynstat_uvel_min             =  -1.8455959946386183E-01
(PID.TID 0000.0001) %MON dynstat_uvel_mean            =   2.9500067212832617E-03
(PID.TID 0000.0001) %MON dynstat_uvel_sd              =   1.3887241721064226E-02
(PID.TID 0000.0001) %MON dynstat_uvel_del2            =   3.8119004119820145E-05
(PID.TID 0000.0001) %MON dynstat_vvel_max             =   1.1194223105631688E-01
(PID.TID 0000.0001) %MON dynstat_vvel_min             =  -1.5109286090867335E-01
(PID.TID 0000.0001) %MON dynstat_vvel_mean            =  -1.9137717678909943E-04
(PID.TID 0000.0001) %MON dynstat_vvel_sd              =   6.3553882243076185E-03
(PID.TID 0000.0001) %MON dynstat_vvel_del2            =   2.6608039254203498E-05
(PID.TID 0000.0001) %MON dynstat_wvel_max             =   4.3039277392184573E-05
(PID.TID 0000.0001) %MON dynstat_wvel_min             =  -6.4954183401629294E-05
(PID.TID 0000.0001) %MON dynstat_wvel_mean            =   1.6188913988088438E-22
(PID.TID 0000.0001) %MON dynstat_wvel_sd              =   1.9029174080860410E-06
(PID.TID 0000.0001) %MON dynstat_wvel_del2            =   1.3087649862558550E-08
(PID.TID 0000.0001) %MON dynstat_theta_max            =   2.9956169503656170E+01
(PID.TID 0000.0001) %MON dynstat_theta_min            =  -2.1380105738435664E+00
(PID.TID 0000.0001) %MON dynstat_theta_mean           =   3.7551993238610168E+00
(PID.TID 0000.0001) %MON dynstat_theta_sd             =   5.1498438038028329E+00
(PID.TID 0000.0001) %MON dynstat_theta_del2           =   2.2475610759997515E-03
(PID.TID 0000.0001) %MON dynstat_salt_max             =   3.7553576011854339E+01
(PID.TID 0000.0001) %MON dynstat_salt_min             =   3.1355298076470451E+01
(PID.TID 0000.0001) %MON dynstat_salt_mean            =   3.4543283111766534E+01
(PID.TID 0000.0001) %MON dynstat_salt_sd              =   3.5868308299669877E-01
(PID.TID 0000.0001) %MON dynstat_salt_del2            =   3.8156578764204891E-04
(PID.TID 0000.0001) %MON forcing_qnet_max             =   4.5165532073974612E+02
(PID.TID 0000.0001) %MON forcing_qnet_min             =  -2.1277729593912761E+02
(PID.TID 0000.0001) %MON forcing_qnet_mean            =  -1.7629331279213257E+01
(PID.TID 0000.0001) %MON forcing_qnet_sd              =   1.1589696557540931E+02
(PID.TID 0000.0001) %MON forcing_qnet_del2            =   2.7311634019843828E-01
(PID.TID 0000.0001) %MON forcing_qsw_max              =   0.0000000000000000E+00
(PID.TID 0000.0001) %MON forcing_qsw_min              =   0.0000000000000000E+00
(PID.TID 0000.0001) %MON forcing_qsw_mean             =   0.0000000000000000E+00
(PID.TID 0000.0001) %MON forcing_qsw_sd               =   0.0000000000000000E+00
(PID.TID 0000.0001) %MON forcing_qsw_del2             =   0.0000000000000000E+00
(PID.TID 0000.0001) %MON forcing_empmr_max            =   6.9206222512718796E-05
(PID.TID 0000.0001) %MON forcing_empmr_min            =  -1.5544422772961752E-04
(PID.TID 0000.0001) %MON forcing_empmr_mean           =   1.2460352661810301E-14
(PID.TID 0000.0001) %MON forcing_empmr_sd             =   2.4700019777611149E-05
(PID.TID 0000.0001) %MON forcing_empmr_del2           =   1.1591736879228609E-07
(PID.TID 0000.0001) %MON forcing_fu_max               =   2.6912787457307180E-01
(PID.TID 0000.0001) %MON forcing_fu_min               =  -1.5720446159442264E-01
(PID.TID 0000.0001) %MON forcing_fu_mean              =   1.7822779918771067E-02
(PID.TID 0000.0001) %MON forcing_fu_sd                =   8.9611665321265493E-02
(PID.TID 0000.0001) %MON forcing_fu_del2              =   2.4809007353166049E-04
(PID.TID 0000.0001) %MON forcing_fv_max               =   1.9778054629762967E-01
(PID.TID 0000.0001) %MON forcing_fv_min               =  -1.5953998118638993E-01
(PID.TID 0000.0001) %MON forcing_fv_mean              =  -6.4319072438235514E-03
(PID.TID 0000.0001) %MON forcing_fv_sd                =   4.4324355939289704E-02
(PID.TID 0000.0001) %MON forcing_fv_del2              =   1.7988590232348149E-04
(PID.TID 0000.0001) %MON advcfl_uvel_max              =   4.0078918420628079E-02
(PID.TID 0000.0001) %MON advcfl_vvel_max              =   2.0874609519219333E-02
(PID.TID 0000.0001) %MON advcfl_wvel_max              =   1.3137738556176065E-02
(PID.TID 0000.0001) %MON advcfl_W_hf_max              =   1.5483763298350363E-02
(PID.TID 0000.0001) %MON pe_b_mean                    =   5.8626547378004892E-04
(PID.TID 0000.0001) %MON ke_max                       =   1.7876070038757994E-02
(PID.TID 0000.0001) %MON ke_mean                      =   1.1148375363651550E-04
(PID.TID 0000.0001) %MON ke_vol                       =   1.1739855207380157E+18
(PID.TID 0000.0001) %MON vort_r_min                   =  -5.5554520820579121E-07
(PID.TID 0000.0001) %MON vort_r_max                   =   6.2137160933136408E-07
(PID.TID 0000.0001) %MON vort_a_mean                  =  -2.5798915502264682E-05
(PID.TID 0000.0001) %MON vort_a_sd                    =   7.3558772929110760E-05
(PID.TID 0000.0001) %MON vort_p_mean                  =  -3.0020960747216349E-05
(PID.TID 0000.0001) %MON vort_p_sd                    =   9.8090577523159142E-05
(PID.TID 0000.0001) %MON surfExpan_theta_mean         =  -2.7138055601395872E-07
(PID.TID 0000.0001) %MON surfExpan_salt_mean          =   2.5216770616800624E-08
(PID.TID 0000.0001) // =======================================================
(PID.TID 0000.0001) // End MONITOR dynamic field statistics
(PID.TID 0000.0001) // =======================================================
(PID.TID 0000.0001) // =======================================================
(PID.TID 0000.0001) // Begin MONITOR ptracer field statistics
(PID.TID 0000.0001) // =======================================================
(PID.TID 0000.0001) %MON trcstat_ptracer01_max        =   2.3885191355540728E+03
(PID.TID 0000.0001) %MON trcstat_ptracer01_min        =   1.7786333270983296E+03
(PID.TID 0000.0001) %MON trcstat_ptracer01_mean       =   2.2509336145703219E+03
(PID.TID 0000.0001) %MON trcstat_ptracer01_sd         =   9.3589807791590545E+01
(PID.TID 0000.0001) %MON trcstat_ptracer01_del2       =   4.1949041862994856E-02
(PID.TID 0000.0001) %MON trcstat_ptracer02_max        =   4.5606554982727789E-02
(PID.TID 0000.0001) %MON trcstat_ptracer02_min        =   2.2105960557211940E-07
(PID.TID 0000.0001) %MON trcstat_ptracer02_mean       =   5.7738974094124628E-04
(PID.TID 0000.0001) %MON trcstat_ptracer02_sd         =   1.8417239921531675E-03
(PID.TID 0000.0001) %MON trcstat_ptracer02_del2       =   3.9003643582441586E-06
(PID.TID 0000.0001) %MON trcstat_ptracer03_max        =   1.6059342390466573E+00
(PID.TID 0000.0001) %MON trcstat_ptracer03_min        =   1.2368372154182280E-05
(PID.TID 0000.0001) %MON trcstat_ptracer03_mean       =   2.3442827327245945E-02
(PID.TID 0000.0001) %MON trcstat_ptracer03_sd         =   7.3031159117979402E-02
(PID.TID 0000.0001) %MON trcstat_ptracer03_del2       =   1.4990916744731710E-04
(PID.TID 0000.0001) %MON trcstat_ptracer04_max        =   4.6624809669667059E+01
(PID.TID 0000.0001) %MON trcstat_ptracer04_min        =   1.6382355313696556E-02
(PID.TID 0000.0001) %MON trcstat_ptracer04_mean       =   3.0986379938891080E+01
(PID.TID 0000.0001) %MON trcstat_ptracer04_sd         =   9.0319447351387439E+00
(PID.TID 0000.0001) %MON trcstat_ptracer04_del2       =   4.6900117281821170E-03
(PID.TID 0000.0001) %MON trcstat_ptracer05_max        =   0.0000000000000000E+00
(PID.TID 0000.0001) %MON trcstat_ptracer05_min        =   0.0000000000000000E+00
(PID.TID 0000.0001) %MON trcstat_ptracer05_mean       =   0.0000000000000000E+00
(PID.TID 0000.0001) %MON trcstat_ptracer05_sd         =   0.0000000000000000E+00
(PID.TID 0000.0001) %MON trcstat_ptracer05_del2       =   0.0000000000000000E+00
(PID.TID 0000.0001) %MON trcstat_ptracer06_max        =   0.0000000000000000E+00
(PID.TID 0000.0001) %MON trcstat_ptracer06_min        =   0.0000000000000000E+00
(PID.TID 0000.0001) %MON trcstat_ptracer06_mean       =   0.0000000000000000E+00
(PID.TID 0000.0001) %MON trcstat_ptracer06_sd         =   0.0000000000000000E+00
(PID.TID 0000.0001) %MON trcstat_ptracer06_del2       =   0.0000000000000000E+00
(PID.TID 0000.0001) %MON trcstat_ptracer07_max        =   1.0529836323980807E-03
(PID.TID 0000.0001) %MON trcstat_ptracer07_min        =   2.2405933472131561E-04
(PID.TID 0000.0001) %MON trcstat_ptracer07_mean       =   5.3063225858896899E-04
(PID.TID 0000.0001) %MON trcstat_ptracer07_sd         =   1.0679260146101754E-04
(PID.TID 0000.0001) %MON trcstat_ptracer07_del2       =   8.2878021037874462E-08
(PID.TID 0000.0001) %MON trcstat_ptracer08_max        =   1.2309753722867621E+01
(PID.TID 0000.0001) %MON trcstat_ptracer08_min        =  -1.9774490822161399E-04
(PID.TID 0000.0001) %MON trcstat_ptracer08_mean       =   5.3409703188854726E-02
(PID.TID 0000.0001) %MON trcstat_ptracer08_sd         =   2.8175215401644660E-01
(PID.TID 0000.0001) %MON trcstat_ptracer08_del2       =   9.6293665647190815E-04
(PID.TID 0000.0001) %MON trcstat_ptracer09_max        =   1.8580788093094347E+00
(PID.TID 0000.0001) %MON trcstat_ptracer09_min        =  -2.9745166441907983E-05
(PID.TID 0000.0001) %MON trcstat_ptracer09_mean       =   8.0618540573051557E-03
(PID.TID 0000.0001) %MON trcstat_ptracer09_sd         =   4.2528663653387325E-02
(PID.TID 0000.0001) %MON trcstat_ptracer09_del2       =   1.4534895996159717E-04
(PID.TID 0000.0001) %MON trcstat_ptracer10_max        =   0.0000000000000000E+00
(PID.TID 0000.0001) %MON trcstat_ptracer10_min        =   0.0000000000000000E+00
(PID.TID 0000.0001) %MON trcstat_ptracer10_mean       =   0.0000000000000000E+00
(PID.TID 0000.0001) %MON trcstat_ptracer10_sd         =   0.0000000000000000E+00
(PID.TID 0000.0001) %MON trcstat_ptracer10_del2       =   0.0000000000000000E+00
(PID.TID 0000.0001) %MON trcstat_ptracer11_max        =   2.9030897610696232E-04
(PID.TID 0000.0001) %MON trcstat_ptracer11_min        =  -4.7606944737591400E-09
(PID.TID 0000.0001) %MON trcstat_ptracer11_mean       =   1.2596040910479064E-06
(PID.TID 0000.0001) %MON trcstat_ptracer11_sd         =   6.6448389524763147E-06
(PID.TID 0000.0001) %MON trcstat_ptracer11_del2       =   2.2710479292909519E-08
(PID.TID 0000.0001) %MON trcstat_ptracer12_max        =   7.7405460051683157E+00
(PID.TID 0000.0001) %MON trcstat_ptracer12_min        =   3.7705006701253484E-06
(PID.TID 0000.0001) %MON trcstat_ptracer12_mean       =   5.1299517464988932E-02
(PID.TID 0000.0001) %MON trcstat_ptracer12_sd         =   1.3597457976604088E-01
(PID.TID 0000.0001) %MON trcstat_ptracer12_del2       =   4.3597218894315964E-04
(PID.TID 0000.0001) %MON trcstat_ptracer13_max        =   1.1683801080161331E+00
(PID.TID 0000.0001) %MON trcstat_ptracer13_min        =   5.6923948254718694E-07
(PID.TID 0000.0001) %MON trcstat_ptracer13_mean       =   7.7433012553482002E-03
(PID.TID 0000.0001) %MON trcstat_ptracer13_sd         =   2.0524419333984269E-02
(PID.TID 0000.0001) %MON trcstat_ptracer13_del2       =   6.5807075275826698E-05
(PID.TID 0000.0001) %MON trcstat_ptracer14_max        =   0.0000000000000000E+00
(PID.TID 0000.0001) %MON trcstat_ptracer14_min        =   0.0000000000000000E+00
(PID.TID 0000.0001) %MON trcstat_ptracer14_mean       =   0.0000000000000000E+00
(PID.TID 0000.0001) %MON trcstat_ptracer14_sd         =   0.0000000000000000E+00
(PID.TID 0000.0001) %MON trcstat_ptracer14_del2       =   0.0000000000000000E+00
(PID.TID 0000.0001) %MON trcstat_ptracer15_max        =   0.0000000000000000E+00
(PID.TID 0000.0001) %MON trcstat_ptracer15_min        =   0.0000000000000000E+00
(PID.TID 0000.0001) %MON trcstat_ptracer15_mean       =   0.0000000000000000E+00
(PID.TID 0000.0001) %MON trcstat_ptracer15_sd         =   0.0000000000000000E+00
(PID.TID 0000.0001) %MON trcstat_ptracer15_del2       =   0.0000000000000000E+00
(PID.TID 0000.0001) %MON trcstat_ptracer16_max        =   1.8254651818540429E-04
(PID.TID 0000.0001) %MON trcstat_ptracer16_min        =   8.8470440422007142E-11
(PID.TID 0000.0001) %MON trcstat_ptracer16_mean       =   1.2098409892346647E-06
(PID.TID 0000.0001) %MON trcstat_ptracer16_sd         =   3.2068004728886663E-06
(PID.TID 0000.0001) %MON trcstat_ptracer16_del2       =   1.0282202174787522E-08
(PID.TID 0000.0001) %MON trcstat_ptracer17_max        =   0.0000000000000000E+00
(PID.TID 0000.0001) %MON trcstat_ptracer17_min        =   0.0000000000000000E+00
(PID.TID 0000.0001) %MON trcstat_ptracer17_mean       =   0.0000000000000000E+00
(PID.TID 0000.0001) %MON trcstat_ptracer17_sd         =   0.0000000000000000E+00
(PID.TID 0000.0001) %MON trcstat_ptracer17_del2       =   0.0000000000000000E+00
(PID.TID 0000.0001) %MON trcstat_ptracer18_max        =   3.9684819327250234E-03
(PID.TID 0000.0001) %MON trcstat_ptracer18_min        =   2.4693459599867362E-08
(PID.TID 0000.0001) %MON trcstat_ptracer18_mean       =   6.2140866236166745E-06
(PID.TID 0000.0001) %MON trcstat_ptracer18_sd         =   4.5578753141451009E-05
(PID.TID 0000.0001) %MON trcstat_ptracer18_del2       =   2.2620016671604665E-07
(PID.TID 0000.0001) %MON trcstat_ptracer19_max        =   3.1940333347828258E-03
(PID.TID 0000.0001) %MON trcstat_ptracer19_min        =   2.5596535950469181E-08
(PID.TID 0000.0001) %MON trcstat_ptracer19_mean       =   6.6416479039304766E-06
(PID.TID 0000.0001) %MON trcstat_ptracer19_sd         =   4.8015639449266087E-05
(PID.TID 0000.0001) %MON trcstat_ptracer19_del2       =   2.4188048710807819E-07
(PID.TID 0000.0001) %MON trcstat_ptracer20_max        =   5.1045720355062862E-03
(PID.TID 0000.0001) %MON trcstat_ptracer20_min        =   2.6793917320477640E-08
(PID.TID 0000.0001) %MON trcstat_ptracer20_mean       =   7.5904200479890200E-06
(PID.TID 0000.0001) %MON trcstat_ptracer20_sd         =   5.5203713763760552E-05
(PID.TID 0000.0001) %MON trcstat_ptracer20_del2       =   2.7391956955401744E-07
(PID.TID 0000.0001) %MON trcstat_ptracer21_max        =   5.1156000526660873E-03
(PID.TID 0000.0001) %MON trcstat_ptracer21_min        =   2.7791126756567904E-08
(PID.TID 0000.0001) %MON trcstat_ptracer21_mean       =   7.7490083902932242E-06
(PID.TID 0000.0001) %MON trcstat_ptracer21_sd         =   5.6199903081572605E-05
(PID.TID 0000.0001) %MON trcstat_ptracer21_del2       =   2.7727944172387329E-07
(PID.TID 0000.0001) %MON trcstat_ptracer22_max        =   4.7348770792284382E-03
(PID.TID 0000.0001) %MON trcstat_ptracer22_min        =   2.8839059156794060E-08
(PID.TID 0000.0001) %MON trcstat_ptracer22_mean       =   7.7960111635075603E-06
(PID.TID 0000.0001) %MON trcstat_ptracer22_sd         =   5.6376832537929774E-05
(PID.TID 0000.0001) %MON trcstat_ptracer22_del2       =   2.8012312884951874E-07
(PID.TID 0000.0001) %MON trcstat_ptracer23_max        =   5.8439970745720804E-03
(PID.TID 0000.0001) %MON trcstat_ptracer23_min        =   2.9907487743979766E-08
(PID.TID 0000.0001) %MON trcstat_ptracer23_mean       =   8.7376888224327624E-06
(PID.TID 0000.0001) %MON trcstat_ptracer23_sd         =   6.3712058765395032E-05
(PID.TID 0000.0001) %MON trcstat_ptracer23_del2       =   3.1414391885710592E-07
(PID.TID 0000.0001) %MON trcstat_ptracer24_max        =   5.7335593890480777E-03
(PID.TID 0000.0001) %MON trcstat_ptracer24_min        =   3.0868698221327247E-08
(PID.TID 0000.0001) %MON trcstat_ptracer24_mean       =   8.8140416343789133E-06
(PID.TID 0000.0001) %MON trcstat_ptracer24_sd         =   6.4135425963586054E-05
(PID.TID 0000.0001) %MON trcstat_ptracer24_del2       =   3.1659200701008126E-07
(PID.TID 0000.0001) %MON trcstat_ptracer25_max        =   5.6341751584193921E-03
(PID.TID 0000.0001) %MON trcstat_ptracer25_min        =   3.1792623244873183E-08
(PID.TID 0000.0001) %MON trcstat_ptracer25_mean       =   8.8990740619637277E-06
(PID.TID 0000.0001) %MON trcstat_ptracer25_sd         =   6.4634068516204935E-05
(PID.TID 0000.0001) %MON trcstat_ptracer25_del2       =   3.1937692766083839E-07
(PID.TID 0000.0001) %MON trcstat_ptracer26_max        =   5.5511965230451328E-03
(PID.TID 0000.0001) %MON trcstat_ptracer26_min        =   3.2630824665946527E-08
(PID.TID 0000.0001) %MON trcstat_ptracer26_mean       =   8.9893043031786025E-06
(PID.TID 0000.0001) %MON trcstat_ptracer26_sd         =   6.5180328641073715E-05
(PID.TID 0000.0001) %MON trcstat_ptracer26_del2       =   3.2222407959299253E-07
(PID.TID 0000.0001) %MON trcstat_ptracer27_max        =   5.4774555289444742E-03
(PID.TID 0000.0001) %MON trcstat_ptracer27_min        =   3.3210097858779599E-08
(PID.TID 0000.0001) %MON trcstat_ptracer27_mean       =   9.0619166839597155E-06
(PID.TID 0000.0001) %MON trcstat_ptracer27_sd         =   6.5612978605091054E-05
(PID.TID 0000.0001) %MON trcstat_ptracer27_del2       =   3.2428466049014520E-07
(PID.TID 0000.0001) %MON trcstat_ptracer28_max        =   7.3562777392540916E-03
(PID.TID 0000.0001) %MON trcstat_ptracer28_min        =   3.3511759224032242E-08
(PID.TID 0000.0001) %MON trcstat_ptracer28_mean       =   1.0515713458762325E-05
(PID.TID 0000.0001) %MON trcstat_ptracer28_sd         =   7.7472600467755548E-05
(PID.TID 0000.0001) %MON trcstat_ptracer28_del2       =   3.7931790687817148E-07
(PID.TID 0000.0001) %MON trcstat_ptracer29_max        =   7.2476075670121105E-03
(PID.TID 0000.0001) %MON trcstat_ptracer29_min        =   3.3870753248688387E-08
(PID.TID 0000.0001) %MON trcstat_ptracer29_mean       =   1.0496788424539967E-05
(PID.TID 0000.0001) %MON trcstat_ptracer29_sd         =   7.7174801378343069E-05
(PID.TID 0000.0001) %MON trcstat_ptracer29_del2       =   3.7736660168304552E-07
(PID.TID 0000.0001) %MON trcstat_ptracer30_max        =   7.1664889788084036E-03
(PID.TID 0000.0001) %MON trcstat_ptracer30_min        =   3.4342681095264730E-08
(PID.TID 0000.0001) %MON trcstat_ptracer30_mean       =   1.0439334382570552E-05
(PID.TID 0000.0001) %MON trcstat_ptracer30_sd         =   7.6624715443206472E-05
(PID.TID 0000.0001) %MON trcstat_ptracer30_del2       =   3.7452132487217795E-07
(PID.TID 0000.0001) %MON trcstat_ptracer31_max        =   7.0783149275230033E-03
(PID.TID 0000.0001) %MON trcstat_ptracer31_min        =   3.4963299856966863E-08
(PID.TID 0000.0001) %MON trcstat_ptracer31_mean       =   1.0323472388036229E-05
(PID.TID 0000.0001) %MON trcstat_ptracer31_sd         =   7.5604614121296788E-05
(PID.TID 0000.0001) %MON trcstat_ptracer31_del2       =   3.6951464567458010E-07
(PID.TID 0000.0001) %MON trcstat_ptracer32_max        =   6.9286236227626896E-03
(PID.TID 0000.0001) %MON trcstat_ptracer32_min        =   3.5780029531399420E-08
(PID.TID 0000.0001) %MON trcstat_ptracer32_mean       =   1.0146752421144293E-05
(PID.TID 0000.0001) %MON trcstat_ptracer32_sd         =   7.4129821647860055E-05
(PID.TID 0000.0001) %MON trcstat_ptracer32_del2       =   3.6288514995415103E-07
(PID.TID 0000.0001) %MON trcstat_ptracer33_max        =   6.7706480420121019E-03
(PID.TID 0000.0001) %MON trcstat_ptracer33_min        =   3.6272791807096740E-08
(PID.TID 0000.0001) %MON trcstat_ptracer33_mean       =   9.9415723313793856E-06
(PID.TID 0000.0001) %MON trcstat_ptracer33_sd         =   7.2381618964483817E-05
(PID.TID 0000.0001) %MON trcstat_ptracer33_del2       =   3.5487541564108806E-07
(PID.TID 0000.0001) %MON trcstat_ptracer34_max        =   6.5027010041517680E-03
(PID.TID 0000.0001) %MON trcstat_ptracer34_min        =   3.6418331881687936E-08
(PID.TID 0000.0001) %MON trcstat_ptracer34_mean       =   9.6960915400585431E-06
(PID.TID 0000.0001) %MON trcstat_ptracer34_sd         =   7.0267142786621892E-05
(PID.TID 0000.0001) %MON trcstat_ptracer34_del2       =   3.4536128534357522E-07
(PID.TID 0000.0001) %MON trcstat_ptracer35_max        =   6.2043715631825806E-03
(PID.TID 0000.0001) %MON trcstat_ptracer35_min        =   3.6614529444483708E-08
(PID.TID 0000.0001) %MON trcstat_ptracer35_mean       =   9.4271192209707503E-06
(PID.TID 0000.0001) %MON trcstat_ptracer35_sd         =   6.7933154297658880E-05
(PID.TID 0000.0001) %MON trcstat_ptracer35_del2       =   3.3420092737009256E-07
(PID.TID 0000.0001) %MON trcstat_ptracer36_max        =   5.7475674037073569E-03
(PID.TID 0000.0001) %MON trcstat_ptracer36_min        =   3.6881079560743593E-08
(PID.TID 0000.0001) %MON trcstat_ptracer36_mean       =   9.1381917526783088E-06
(PID.TID 0000.0001) %MON trcstat_ptracer36_sd         =   6.5435403154875341E-05
(PID.TID 0000.0001) %MON trcstat_ptracer36_del2       =   3.2235407960360240E-07
(PID.TID 0000.0001) %MON trcstat_ptracer37_max        =   5.3075226282538624E-03
(PID.TID 0000.0001) %MON trcstat_ptracer37_min        =   3.7246689139863066E-08
(PID.TID 0000.0001) %MON trcstat_ptracer37_mean       =   8.8568419078780548E-06
(PID.TID 0000.0001) %MON trcstat_ptracer37_sd         =   6.3042061646896772E-05
(PID.TID 0000.0001) %MON trcstat_ptracer37_del2       =   3.1079145578249320E-07
(PID.TID 0000.0001) %MON trcstat_ptracer38_max        =   4.8938001343859679E-03
(PID.TID 0000.0001) %MON trcstat_ptracer38_min        =   3.7754018818856007E-08
(PID.TID 0000.0001) %MON trcstat_ptracer38_mean       =   8.5969759660333692E-06
(PID.TID 0000.0001) %MON trcstat_ptracer38_sd         =   6.0816110251637215E-05
(PID.TID 0000.0001) %MON trcstat_ptracer38_del2       =   2.9989869855557820E-07
(PID.TID 0000.0001) %MON trcstat_ptracer39_max        =   4.5073098127739524E-03
(PID.TID 0000.0001) %MON trcstat_ptracer39_min        =   3.8467788952750510E-08
(PID.TID 0000.0001) %MON trcstat_ptracer39_mean       =   8.3582925902575561E-06
(PID.TID 0000.0001) %MON trcstat_ptracer39_sd         =   5.8732538212852730E-05
(PID.TID 0000.0001) %MON trcstat_ptracer39_del2       =   2.8954524151011261E-07
(PID.TID 0000.0001) %MON trcstat_ptracer40_max        =   4.1455280695154410E-03
(PID.TID 0000.0001) %MON trcstat_ptracer40_min        =   3.9488303452982305E-08
(PID.TID 0000.0001) %MON trcstat_ptracer40_mean       =   8.1397313883264229E-06
(PID.TID 0000.0001) %MON trcstat_ptracer40_sd         =   5.6758612884134151E-05
(PID.TID 0000.0001) %MON trcstat_ptracer40_del2       =   2.7955825687445127E-07
(PID.TID 0000.0001) %MON trcstat_ptracer41_max        =   3.8029332867500227E-03
(PID.TID 0000.0001) %MON trcstat_ptracer41_min        =   4.0974449512379442E-08
(PID.TID 0000.0001) %MON trcstat_ptracer41_mean       =   7.9396834989566073E-06
(PID.TID 0000.0001) %MON trcstat_ptracer41_sd         =   5.4856685426042697E-05
(PID.TID 0000.0001) %MON trcstat_ptracer41_del2       =   2.6974108821354146E-07
(PID.TID 0000.0001) %MON trcstat_ptracer42_max        =   3.4720909842599849E-03
(PID.TID 0000.0001) %MON trcstat_ptracer42_min        =   4.3183654233955695E-08
(PID.TID 0000.0001) %MON trcstat_ptracer42_mean       =   7.7562738724053314E-06
(PID.TID 0000.0001) %MON trcstat_ptracer42_sd         =   5.2987893548369993E-05
(PID.TID 0000.0001) %MON trcstat_ptracer42_del2       =   2.5990610385204971E-07
(PID.TID 0000.0001) %MON trcstat_ptracer43_max        =   3.1111948575030207E-03
(PID.TID 0000.0001) %MON trcstat_ptracer43_min        =   2.6974673757210278E-08
(PID.TID 0000.0001) %MON trcstat_ptracer43_mean       =   6.0930771871389597E-06
(PID.TID 0000.0001) %MON trcstat_ptracer43_sd         =   4.5258727068456920E-05
(PID.TID 0000.0001) %MON trcstat_ptracer43_del2       =   2.3691750418933868E-07
(PID.TID 0000.0001) %MON trcstat_ptracer44_max        =   3.1106236383347708E-03
(PID.TID 0000.0001) %MON trcstat_ptracer44_min        =   2.6974721712317392E-08
(PID.TID 0000.0001) %MON trcstat_ptracer44_mean       =   6.0930076076904302E-06
(PID.TID 0000.0001) %MON trcstat_ptracer44_sd         =   4.5256531697348837E-05
(PID.TID 0000.0001) %MON trcstat_ptracer44_del2       =   2.3689146280681252E-07
(PID.TID 0000.0001) %MON trcstat_ptracer45_max        =   3.1101135941139740E-03
(PID.TID 0000.0001) %MON trcstat_ptracer45_min        =   2.6974764625937693E-08
(PID.TID 0000.0001) %MON trcstat_ptracer45_mean       =   6.0929454608564705E-06
(PID.TID 0000.0001) %MON trcstat_ptracer45_sd         =   4.5254573099873334E-05
(PID.TID 0000.0001) %MON trcstat_ptracer45_del2       =   2.3686820629851554E-07
(PID.TID 0000.0001) %MON trcstat_ptracer46_max        =   3.1096580620901954E-03
(PID.TID 0000.0001) %MON trcstat_ptracer46_min        =   2.6974803028773509E-08
(PID.TID 0000.0001) %MON trcstat_ptracer46_mean       =   6.0928899408466248E-06
(PID.TID 0000.0001) %MON trcstat_ptracer46_sd         =   4.5252825159697339E-05
(PID.TID 0000.0001) %MON trcstat_ptracer46_del2       =   2.3684743205436417E-07
(PID.TID 0000.0001) %MON trcstat_ptracer47_max        =   3.1092511268484956E-03
(PID.TID 0000.0001) %MON trcstat_ptracer47_min        =   2.6974837395523817E-08
(PID.TID 0000.0001) %MON trcstat_ptracer47_mean       =   6.0928403315337191E-06
(PID.TID 0000.0001) %MON trcstat_ptracer47_sd         =   4.5251264754233684E-05
(PID.TID 0000.0001) %MON trcstat_ptracer47_del2       =   2.3682887129815072E-07
(PID.TID 0000.0001) %MON trcstat_ptracer48_max        =   3.1088875323296789E-03
(PID.TID 0000.0001) %MON trcstat_ptracer48_min        =   2.6974868150821445E-08
(PID.TID 0000.0001) %MON trcstat_ptracer48_mean       =   6.0927959960377250E-06
(PID.TID 0000.0001) %MON trcstat_ptracer48_sd         =   4.5249871389890739E-05
(PID.TID 0000.0001) %MON trcstat_ptracer48_del2       =   2.3681228511755895E-07
(PID.TID 0000.0001) %MON trcstat_ptracer49_max        =   3.1085626049807535E-03
(PID.TID 0000.0001) %MON trcstat_ptracer49_min        =   2.6974895674535453E-08
(PID.TID 0000.0001) %MON trcstat_ptracer49_mean       =   6.0927563675972947E-06
(PID.TID 0000.0001) %MON trcstat_ptracer49_sd         =   4.5248626885678036E-05
(PID.TID 0000.0001) %MON trcstat_ptracer49_del2       =   2.3679746099601231E-07
(PID.TID 0000.0001) %MON trcstat_ptracer50_max        =   3.1082721864905956E-03
(PID.TID 0000.0001) %MON trcstat_ptracer50_min        =   2.6974920306507517E-08
(PID.TID 0000.0001) %MON trcstat_ptracer50_mean       =   6.0927209415605323E-06
(PID.TID 0000.0001) %MON trcstat_ptracer50_sd         =   4.5247515098146742E-05
(PID.TID 0000.0001) %MON trcstat_ptracer50_del2       =   2.3678420977635348E-07
(PID.TID 0000.0001) %MON trcstat_ptracer51_max        =   3.1080125748028336E-03
(PID.TID 0000.0001) %MON trcstat_ptracer51_min        =   2.6974942350783736E-08
(PID.TID 0000.0001) %MON trcstat_ptracer51_mean       =   6.0926892683450818E-06
(PID.TID 0000.0001) %MON trcstat_ptracer51_sd         =   4.5246521681692880E-05
(PID.TID 0000.0001) %MON trcstat_ptracer51_del2       =   2.3677236299713943E-07
(PID.TID 0000.0001) %MON trcstat_ptracer52_max        =   3.1077804722952438E-03
(PID.TID 0000.0001) %MON trcstat_ptracer52_min        =   2.6974962079396586E-08
(PID.TID 0000.0001) %MON trcstat_ptracer52_mean       =   6.0926609472412570E-06
(PID.TID 0000.0001) %MON trcstat_ptracer52_sd         =   4.5245633879194893E-05
(PID.TID 0000.0001) %MON trcstat_ptracer52_del2       =   2.3676177055136710E-07
(PID.TID 0000.0001) %MON trcstat_ptracer53_max        =   3.1075729401796250E-03
(PID.TID 0000.0001) %MON trcstat_ptracer53_min        =   2.6974979735744341E-08
(PID.TID 0000.0001) %MON trcstat_ptracer53_mean       =   6.0926356209476875E-06
(PID.TID 0000.0001) %MON trcstat_ptracer53_sd         =   4.5244840338765983E-05
(PID.TID 0000.0001) %MON trcstat_ptracer53_del2       =   2.3675229862508686E-07
(PID.TID 0000.0001) %MON trcstat_ptracer54_max        =   3.1073873583139476E-03
(PID.TID 0000.0001) %MON trcstat_ptracer54_min        =   2.6974995537612636E-08
(PID.TID 0000.0001) %MON trcstat_ptracer54_mean       =   6.0926129707473890E-06
(PID.TID 0000.0001) %MON trcstat_ptracer54_sd         =   4.5244130953046647E-05
(PID.TID 0000.0001) %MON trcstat_ptracer54_del2       =   2.3674382787957077E-07
(PID.TID 0000.0001) %MON trcstat_ptracer55_max        =   3.1072213897342504E-03
(PID.TID 0000.0001) %MON trcstat_ptracer55_min        =   2.6975009679875367E-08
(PID.TID 0000.0001) %MON trcstat_ptracer55_mean       =   6.0925927122433260E-06
(PID.TID 0000.0001) %MON trcstat_ptracer55_sd         =   4.5243496718004510E-05
(PID.TID 0000.0001) %MON trcstat_ptracer55_del2       =   2.3673625184594069E-07
(PID.TID 0000.0001) %MON trcstat_ptracer56_max        =   3.1070729493111984E-03
(PID.TID 0000.0001) %MON trcstat_ptracer56_min        =   2.6975022336909713E-08
(PID.TID 0000.0001) %MON trcstat_ptracer56_mean       =   6.0925745915840027E-06
(PID.TID 0000.0001) %MON trcstat_ptracer56_sd         =   4.5242929608670733E-05
(PID.TID 0000.0001) %MON trcstat_ptracer56_del2       =   2.3672947550559789E-07
(PID.TID 0000.0001) %MON trcstat_ptracer57_max        =   3.1069401760184913E-03
(PID.TID 0000.0001) %MON trcstat_ptracer57_min        =   2.6975033664755823E-08
(PID.TID 0000.0001) %MON trcstat_ptracer57_mean       =   6.0925583821195485E-06
(PID.TID 0000.0001) %MON trcstat_ptracer57_sd         =   4.5242422469607222E-05
(PID.TID 0000.0001) %MON trcstat_ptracer57_del2       =   2.3672341403344500E-07
(PID.TID 0000.0001) %MON trcstat_ptracer58_max        =   3.1068214083700180E-03
(PID.TID 0000.0001) %MON trcstat_ptracer58_min        =   2.6975043803048027E-08
(PID.TID 0000.0001) %MON trcstat_ptracer58_mean       =   6.0925438814362643E-06
(PID.TID 0000.0001) %MON trcstat_ptracer58_sd         =   4.5241968918218630E-05
(PID.TID 0000.0001) %MON trcstat_ptracer58_del2       =   2.3671799168402583E-07
(PID.TID 0000.0001) %MON trcstat_ptracer59_max        =   3.1067151626418747E-03
(PID.TID 0000.0001) %MON trcstat_ptracer59_min        =   2.6975052876741968E-08
(PID.TID 0000.0001) %MON trcstat_ptracer59_mean       =   6.0925309087239942E-06
(PID.TID 0000.0001) %MON trcstat_ptracer59_sd         =   4.5241563259297828E-05
(PID.TID 0000.0001) %MON trcstat_ptracer59_del2       =   2.3671314080338467E-07
(PID.TID 0000.0001) %MON trcstat_ptracer60_max        =   3.1066201135458707E-03
(PID.TID 0000.0001) %MON trcstat_ptracer60_min        =   2.6975060997659801E-08
(PID.TID 0000.0001) %MON trcstat_ptracer60_mean       =   6.0925193024377784E-06
(PID.TID 0000.0001) %MON trcstat_ptracer60_sd         =   4.5241200409404352E-05
(PID.TID 0000.0001) %MON trcstat_ptracer60_del2       =   2.3670880095165850E-07
(PID.TID 0000.0001) %MON trcstat_ptracer61_max        =   3.1065350770642813E-03
(PID.TID 0000.0001) %MON trcstat_ptracer61_min        =   2.6975068265871976E-08
(PID.TID 0000.0001) %MON trcstat_ptracer61_mean       =   6.0925089182188251E-06
(PID.TID 0000.0001) %MON trcstat_ptracer61_sd         =   4.5240875829870034E-05
(PID.TID 0000.0001) %MON trcstat_ptracer61_del2       =   2.3670491812339001E-07
(PID.TID 0000.0001) %MON trcstat_ptracer62_max        =   3.1064589951926369E-03
(PID.TID 0000.0001) %MON trcstat_ptracer62_min        =   2.6975074770933580E-08
(PID.TID 0000.0001) %MON trcstat_ptracer62_mean       =   6.0924996270450487E-06
(PID.TID 0000.0001) %MON trcstat_ptracer62_sd         =   4.5240585467393025E-05
(PID.TID 0000.0001) %MON trcstat_ptracer62_del2       =   2.3670144405415708E-07
(PID.TID 0000.0001) %MON trcstat_ptracer63_max        =   3.1063909223691334E-03
(PID.TID 0000.0001) %MON trcstat_ptracer63_min        =   2.6975080592990161E-08
(PID.TID 0000.0001) %MON trcstat_ptracer63_mean       =   6.0924913135848447E-06
(PID.TID 0000.0001) %MON trcstat_ptracer63_sd         =   4.5240325701309497E-05
(PID.TID 0000.0001) %MON trcstat_ptracer63_del2       =   2.3669833560358349E-07
(PID.TID 0000.0001) %MON trcstat_ptracer64_max        =   3.1063300133967234E-03
(PID.TID 0000.0001) %MON trcstat_ptracer64_min        =   2.6975085803767380E-08
(PID.TID 0000.0001) %MON trcstat_ptracer64_mean       =   6.0924838747306594E-06
(PID.TID 0000.0001) %MON trcstat_ptracer64_sd         =   4.5240093296754952E-05
(PID.TID 0000.0001) %MON trcstat_ptracer64_del2       =   2.3669555420596762E-07
(PID.TID 0000.0001) %MON trcstat_ptracer65_max        =   3.1062755126876284E-03
(PID.TID 0000.0001) %MON trcstat_ptracer65_min        =   2.6975090467455938E-08
(PID.TID 0000.0001) %MON trcstat_ptracer65_mean       =   6.0924772182926938E-06
(PID.TID 0000.0001) %MON trcstat_ptracer65_sd         =   4.5239885363024145E-05
(PID.TID 0000.0001) %MON trcstat_ptracer65_del2       =   2.3669306538088008E-07
(PID.TID 0000.0001) %MON trcstat_ptracer66_max        =   3.1062267446806129E-03
(PID.TID 0000.0001) %MON trcstat_ptracer66_min        =   2.6975094641503905E-08
(PID.TID 0000.0001) %MON trcstat_ptracer66_mean       =   6.0924712618337747E-06
(PID.TID 0000.0001) %MON trcstat_ptracer66_sd         =   4.5239699316533912E-05
(PID.TID 0000.0001) %MON trcstat_ptracer66_del2       =   2.3669083829697373E-07
(PID.TID 0000.0001) %MON trcstat_ptracer67_max        =   3.1061831052992183E-03
(PID.TID 0000.0001) %MON trcstat_ptracer67_min        =   2.6975098377325226E-08
(PID.TID 0000.0001) %MON trcstat_ptracer67_mean       =   6.0924659316310826E-06
(PID.TID 0000.0001) %MON trcstat_ptracer67_sd         =   4.5239532847849386E-05
(PID.TID 0000.0001) %MON trcstat_ptracer67_del2       =   2.3668884538303121E-07
(PID.TID 0000.0001) %MON trcstat_ptracer68_max        =   3.1061440543347020E-03
(PID.TID 0000.0001) %MON trcstat_ptracer68_min        =   2.6975101720933919E-08
(PID.TID 0000.0001) %MON trcstat_ptracer68_mean       =   6.0924611617489844E-06
(PID.TID 0000.0001) %MON trcstat_ptracer68_sd         =   4.5239383892321562E-05
(PID.TID 0000.0001) %MON trcstat_ptracer68_del2       =   2.3668706198103511E-07
(PID.TID 0000.0001) %MON trcstat_ptracer69_max        =   3.1061091086510562E-03
(PID.TID 0000.0001) %MON trcstat_ptracer69_min        =   2.6975104713511400E-08
(PID.TID 0000.0001) %MON trcstat_ptracer69_mean       =   6.0924568932120555E-06
(PID.TID 0000.0001) %MON trcstat_ptracer69_sd         =   4.5239250603923116E-05
(PID.TID 0000.0001) %MON trcstat_ptracer69_del2       =   2.3668546603658211E-07
(PID.TID 0000.0001) %MON trcstat_ptracer70_max        =   3.1060778361213211E-03
(PID.TID 0000.0001) %MON trcstat_ptracer70_min        =   2.6975107391914392E-08
(PID.TID 0000.0001) %MON trcstat_ptracer70_mean       =   6.0924530732668832E-06
(PID.TID 0000.0001) %MON trcstat_ptracer70_sd         =   4.5239131331922657E-05
(PID.TID 0000.0001) %MON trcstat_ptracer70_del2       =   2.3668403782255635E-07
(PID.TID 0000.0001) %MON trcstat_ptracer71_max        =   3.1060498502148491E-03
(PID.TID 0000.0001) %MON trcstat_ptracer71_min        =   2.6975109789129040E-08
(PID.TID 0000.0001) %MON trcstat_ptracer71_mean       =   6.0924496547226803E-06
(PID.TID 0000.0001) %MON trcstat_ptracer71_sd         =   4.5239024600083233E-05
(PID.TID 0000.0001) %MON trcstat_ptracer71_del2       =   2.3668275969240454E-07
(PID.TID 0000.0001) %MON trcstat_ptracer72_max        =   3.1060248051643260E-03
(PID.TID 0000.0001) %MON trcstat_ptracer72_min        =   2.6975111934677707E-08
(PID.TID 0000.0001) %MON trcstat_ptracer72_mean       =   6.0924465953622989E-06
(PID.TID 0000.0001) %MON trcstat_ptracer72_sd         =   4.5238929088104522E-05
(PID.TID 0000.0001) %MON trcstat_ptracer72_del2       =   2.3668161585979377E-07
(PID.TID 0000.0001) %MON trcstat_ptracer73_max        =   9.1792886525710602E-04
(PID.TID 0000.0001) %MON trcstat_ptracer73_min        =   8.1923005980105195E-09
(PID.TID 0000.0001) %MON trcstat_ptracer73_mean       =   2.0357816397409807E-06
(PID.TID 0000.0001) %MON trcstat_ptracer73_sd         =   1.4517819612606412E-05
(PID.TID 0000.0001) %MON trcstat_ptracer73_del2       =   7.3252972821983753E-08
(PID.TID 0000.0001) %MON trcstat_ptracer74_max        =   1.2276690731920991E-03
(PID.TID 0000.0001) %MON trcstat_ptracer74_min        =   7.8226924863843337E-09
(PID.TID 0000.0001) %MON trcstat_ptracer74_mean       =   1.8843605911471442E-06
(PID.TID 0000.0001) %MON trcstat_ptracer74_sd         =   1.3580666521884045E-05
(PID.TID 0000.0001) %MON trcstat_ptracer74_del2       =   6.7687368078396778E-08
(PID.TID 0000.0001) %MON trcstat_ptracer75_max        =   1.0080027116649288E-03
(PID.TID 0000.0001) %MON trcstat_ptracer75_min        =   7.3298149813268467E-09
(PID.TID 0000.0001) %MON trcstat_ptracer75_mean       =   1.8331013507906448E-06
(PID.TID 0000.0001) %MON trcstat_ptracer75_sd         =   1.3193899358738406E-05
(PID.TID 0000.0001) %MON trcstat_ptracer75_del2       =   6.5989678576638716E-08
(PID.TID 0000.0001) %MON trcstat_ptracer76_max        =   9.0408142025194744E-04
(PID.TID 0000.0001) %MON trcstat_ptracer76_min        =   6.9244682621489622E-09
(PID.TID 0000.0001) %MON trcstat_ptracer76_mean       =   1.6718839838686637E-06
(PID.TID 0000.0001) %MON trcstat_ptracer76_sd         =   1.2068341479791537E-05
(PID.TID 0000.0001) %MON trcstat_ptracer76_del2       =   6.0788564176746152E-08
(PID.TID 0000.0001) %MON trcstat_ptracer77_max        =   8.9163674891547359E-04
(PID.TID 0000.0001) %MON trcstat_ptracer77_min        =   6.5050289206872175E-09
(PID.TID 0000.0001) %MON trcstat_ptracer77_mean       =   1.5455134568632680E-06
(PID.TID 0000.0001) %MON trcstat_ptracer77_sd         =   1.1182290964906532E-05
(PID.TID 0000.0001) %MON trcstat_ptracer77_del2       =   5.6225461836448867E-08
(PID.TID 0000.0001) %MON trcstat_ptracer78_max        =   9.8412867298458746E-04
(PID.TID 0000.0001) %MON trcstat_ptracer78_min        =   6.0951177548184574E-09
(PID.TID 0000.0001) %MON trcstat_ptracer78_mean       =   1.5149875442237431E-06
(PID.TID 0000.0001) %MON trcstat_ptracer78_sd         =   1.1026090558843431E-05
(PID.TID 0000.0001) %MON trcstat_ptracer78_del2       =   5.5550280259756213E-08
(PID.TID 0000.0001) %MON trcstat_ptracer79_max        =   8.6156784366696261E-04
(PID.TID 0000.0001) %MON trcstat_ptracer79_min        =   5.7101916914199122E-09
(PID.TID 0000.0001) %MON trcstat_ptracer79_mean       =   1.3738589927952506E-06
(PID.TID 0000.0001) %MON trcstat_ptracer79_sd         =   9.9958037634140139E-06
(PID.TID 0000.0001) %MON trcstat_ptracer79_del2       =   5.0529066102796193E-08
(PID.TID 0000.0001) %MON trcstat_ptracer80_max        =   7.5644997583612845E-04
(PID.TID 0000.0001) %MON trcstat_ptracer80_min        =   5.3823470992157828E-09
(PID.TID 0000.0001) %MON trcstat_ptracer80_mean       =   1.2495823059677963E-06
(PID.TID 0000.0001) %MON trcstat_ptracer80_sd         =   9.0959075909452814E-06
(PID.TID 0000.0001) %MON trcstat_ptracer80_del2       =   4.6126988841002592E-08
(PID.TID 0000.0001) %MON trcstat_ptracer81_max        =   6.6680632404142503E-04
(PID.TID 0000.0001) %MON trcstat_ptracer81_min        =   5.1138637004516446E-09
(PID.TID 0000.0001) %MON trcstat_ptracer81_mean       =   1.1430999832879611E-06
(PID.TID 0000.0001) %MON trcstat_ptracer81_sd         =   8.3305474765349724E-06
(PID.TID 0000.0001) %MON trcstat_ptracer81_del2       =   4.2395865241722058E-08
(PID.TID 0000.0001) %MON trcstat_ptracer82_max        =   5.8747855398029296E-04
(PID.TID 0000.0001) %MON trcstat_ptracer82_min        =   4.9851381707546538E-09
(PID.TID 0000.0001) %MON trcstat_ptracer82_mean       =   1.0562899368953522E-06
(PID.TID 0000.0001) %MON trcstat_ptracer82_sd         =   7.7086819305816218E-06
(PID.TID 0000.0001) %MON trcstat_ptracer82_del2       =   3.9408063480141686E-08
(PID.TID 0000.0001) %MON trcstat_ptracer83_max        =   6.3007898874102390E-04
(PID.TID 0000.0001) %MON trcstat_ptracer83_min        =   5.0232882758039652E-09
(PID.TID 0000.0001) %MON trcstat_ptracer83_mean       =   1.0483653603299078E-06
(PID.TID 0000.0001) %MON trcstat_ptracer83_sd         =   7.6880273416218135E-06
(PID.TID 0000.0001) %MON trcstat_ptracer83_del2       =   3.9472301070058854E-08
(PID.TID 0000.0001) %MON trcstat_ptracer84_max        =   5.4780599431152087E-04
(PID.TID 0000.0001) %MON trcstat_ptracer84_min        =   5.0755009834948409E-09
(PID.TID 0000.0001) %MON trcstat_ptracer84_mean       =   9.9253267947398829E-07
(PID.TID 0000.0001) %MON trcstat_ptracer84_sd         =   7.2847356747866763E-06
(PID.TID 0000.0001) %MON trcstat_ptracer84_del2       =   3.7645080518139665E-08
(PID.TID 0000.0001) %MON trcstat_ptracer85_max        =   4.8271336096428446E-04
(PID.TID 0000.0001) %MON trcstat_ptracer85_min        =   5.1441036231751444E-09
(PID.TID 0000.0001) %MON trcstat_ptracer85_mean       =   9.5628227096909835E-07
(PID.TID 0000.0001) %MON trcstat_ptracer85_sd         =   7.0283533177707207E-06
(PID.TID 0000.0001) %MON trcstat_ptracer85_del2       =   3.6460439141746558E-08
(PID.TID 0000.0001) %MON trcstat_ptracer86_max        =   4.5336214092595066E-04
(PID.TID 0000.0001) %MON trcstat_ptracer86_min        =   5.2343161392338280E-09
(PID.TID 0000.0001) %MON trcstat_ptracer86_mean       =   9.3546556434158573E-07
(PID.TID 0000.0001) %MON trcstat_ptracer86_sd         =   6.8812465294843504E-06
(PID.TID 0000.0001) %MON trcstat_ptracer86_del2       =   3.5750722229163597E-08
(PID.TID 0000.0001) %MON trcstat_ptracer87_max        =   4.5217556829483732E-04
(PID.TID 0000.0001) %MON trcstat_ptracer87_min        =   5.3530751411706791E-09
(PID.TID 0000.0001) %MON trcstat_ptracer87_mean       =   9.2432160374057033E-07
(PID.TID 0000.0001) %MON trcstat_ptracer87_sd         =   6.7987501633744519E-06
(PID.TID 0000.0001) %MON trcstat_ptracer87_del2       =   3.5317574165235550E-08
(PID.TID 0000.0001) %MON trcstat_ptracer88_max        =   4.5062421935702587E-04
(PID.TID 0000.0001) %MON trcstat_ptracer88_min        =   5.4751355192482923E-09
(PID.TID 0000.0001) %MON trcstat_ptracer88_mean       =   9.1801577960778214E-07
(PID.TID 0000.0001) %MON trcstat_ptracer88_sd         =   6.7492554258533216E-06
(PID.TID 0000.0001) %MON trcstat_ptracer88_del2       =   3.5039557088061346E-08
(PID.TID 0000.0001) %MON trcstat_ptracer89_max        =   4.4859738934051980E-04
(PID.TID 0000.0001) %MON trcstat_ptracer89_min        =   5.4971037479833158E-09
(PID.TID 0000.0001) %MON trcstat_ptracer89_mean       =   9.1497596529016890E-07
(PID.TID 0000.0001) %MON trcstat_ptracer89_sd         =   6.7194214981752514E-06
(PID.TID 0000.0001) %MON trcstat_ptracer89_del2       =   3.4851956422571184E-08
(PID.TID 0000.0001) %MON trcstat_ptracer90_max        =   4.4595180487347878E-04
(PID.TID 0000.0001) %MON trcstat_ptracer90_min        =   5.5267183551280061E-09
(PID.TID 0000.0001) %MON trcstat_ptracer90_mean       =   9.1366983528459194E-07
(PID.TID 0000.0001) %MON trcstat_ptracer90_sd         =   6.6977940563322886E-06
(PID.TID 0000.0001) %MON trcstat_ptracer90_del2       =   3.4706463521025595E-08
(PID.TID 0000.0001) %MON trcstat_ptracer91_max        =   4.4250278445282307E-04
(PID.TID 0000.0001) %MON trcstat_ptracer91_min        =   5.5669521688708030E-09
(PID.TID 0000.0001) %MON trcstat_ptracer91_mean       =   9.1345395692939723E-07
(PID.TID 0000.0001) %MON trcstat_ptracer91_sd         =   6.6785941135561263E-06
(PID.TID 0000.0001) %MON trcstat_ptracer91_del2       =   3.4559309248676864E-08
(PID.TID 0000.0001) %MON trcstat_ptracer92_max        =   4.3801354498176117E-04
(PID.TID 0000.0001) %MON trcstat_ptracer92_min        =   5.6221382913446973E-09
(PID.TID 0000.0001) %MON trcstat_ptracer92_mean       =   9.1345800153298916E-07
(PID.TID 0000.0001) %MON trcstat_ptracer92_sd         =   6.6548322673145741E-06
(PID.TID 0000.0001) %MON trcstat_ptracer92_del2       =   3.4378110550743430E-08
(PID.TID 0000.0001) %MON trcstat_ptracer93_max        =   4.3218269142450172E-04
(PID.TID 0000.0001) %MON trcstat_ptracer93_min        =   5.6987160410191354E-09
(PID.TID 0000.0001) %MON trcstat_ptracer93_mean       =   9.1346328862990848E-07
(PID.TID 0000.0001) %MON trcstat_ptracer93_sd         =   6.6241956083015050E-06
(PID.TID 0000.0001) %MON trcstat_ptracer93_del2       =   3.4145608069949232E-08
(PID.TID 0000.0001) %MON trcstat_ptracer94_max        =   4.2463034570925208E-04
(PID.TID 0000.0001) %MON trcstat_ptracer94_min        =   5.8064544942792364E-09
(PID.TID 0000.0001) %MON trcstat_ptracer94_mean       =   9.1347019441256265E-07
(PID.TID 0000.0001) %MON trcstat_ptracer94_sd         =   6.5848950142726626E-06
(PID.TID 0000.0001) %MON trcstat_ptracer94_del2       =   3.3849331787945885E-08
(PID.TID 0000.0001) %MON trcstat_ptracer95_max        =   4.1488417358354372E-04
(PID.TID 0000.0001) %MON trcstat_ptracer95_min        =   5.9604938115822519E-09
(PID.TID 0000.0001) %MON trcstat_ptracer95_mean       =   9.1347920565041741E-07
(PID.TID 0000.0001) %MON trcstat_ptracer95_sd         =   6.5348146658358714E-06
(PID.TID 0000.0001) %MON trcstat_ptracer95_del2       =   3.3475332755577854E-08
(PID.TID 0000.0001) %MON trcstat_ptracer96_max        =   4.0236800769499547E-04
(PID.TID 0000.0001) %MON trcstat_ptracer96_min        =   6.1848168779841810E-09
(PID.TID 0000.0001) %MON trcstat_ptracer96_mean       =   9.1349094834842542E-07
(PID.TID 0000.0001) %MON trcstat_ptracer96_sd         =   6.4715551285302205E-06
(PID.TID 0000.0001) %MON trcstat_ptracer96_del2       =   3.3009202949692883E-08
(PID.TID 0000.0001) %MON trcstat_ptracer97_max        =   3.9393020658904060E-04
(PID.TID 0000.0001) %MON trcstat_ptracer97_min        =   6.5182804589257901E-09
(PID.TID 0000.0001) %MON trcstat_ptracer97_mean       =   9.1350622408347027E-07
(PID.TID 0000.0001) %MON trcstat_ptracer97_sd         =   6.3925623560838264E-06
(PID.TID 0000.0001) %MON trcstat_ptracer97_del2       =   3.2438614532667243E-08
(PID.TID 0000.0001) %MON trcstat_ptracer98_max        =   4.6882847632942595E-04
(PID.TID 0000.0001) %MON trcstat_ptracer98_min        =   4.0717161907413729E-09
(PID.TID 0000.0001) %MON trcstat_ptracer98_mean       =   9.1961323050090350E-07
(PID.TID 0000.0001) %MON trcstat_ptracer98_sd         =   6.8284973315855205E-06
(PID.TID 0000.0001) %MON trcstat_ptracer98_del2       =   3.5725043846944281E-08
(PID.TID 0000.0001) %MON trcstat_ptracer99_max        =   4.6882407966719180E-04
(PID.TID 0000.0001) %MON trcstat_ptracer99_min        =   4.0717162992049509E-09
(PID.TID 0000.0001) %MON trcstat_ptracer99_mean       =   9.1961281850320784E-07
(PID.TID 0000.0001) %MON trcstat_ptracer99_sd         =   6.8284801416808466E-06
(PID.TID 0000.0001) %MON trcstat_ptracer99_del2       =   3.5724886722582612E-08
(PID.TID 0000.0001) %MON trcstat_ptracer0a_max        =   4.6882045930007725E-04
(PID.TID 0000.0001) %MON trcstat_ptracer0a_min        =   4.0717163942244700E-09
(PID.TID 0000.0001) %MON trcstat_ptracer0a_mean       =   9.1961247757668406E-07
(PID.TID 0000.0001) %MON trcstat_ptracer0a_sd         =   6.8284660284428279E-06
(PID.TID 0000.0001) %MON trcstat_ptracer0a_del2       =   3.5724756685424559E-08
(PID.TID 0000.0001) %MON trcstat_ptracer0b_max        =   4.6881747141889752E-04
(PID.TID 0000.0001) %MON trcstat_ptracer0b_min        =   4.0717164776206465E-09
(PID.TID 0000.0001) %MON trcstat_ptracer0b_mean       =   9.1961219475752902E-07
(PID.TID 0000.0001) %MON trcstat_ptracer0b_sd         =   6.8284544172953469E-06
(PID.TID 0000.0001) %MON trcstat_ptracer0b_del2       =   3.5724648788925519E-08
(PID.TID 0000.0001) %MON trcstat_ptracer0c_max        =   4.6881499962397020E-04
(PID.TID 0000.0001) %MON trcstat_ptracer0c_min        =   4.0717165509415985E-09
(PID.TID 0000.0001) %MON trcstat_ptracer0c_mean       =   9.1961195952870529E-07
(PID.TID 0000.0001) %MON trcstat_ptracer0c_sd         =   6.8284448436246341E-06
(PID.TID 0000.0001) %MON trcstat_ptracer0c_del2       =   3.5724559023103246E-08
(PID.TID 0000.0001) %MON trcstat_ptracer0d_max        =   4.6881294962194589E-04
(PID.TID 0000.0001) %MON trcstat_ptracer0d_min        =   4.0717166155077090E-09
(PID.TID 0000.0001) %MON trcstat_ptracer0d_mean       =   9.1961176334955414E-07
(PID.TID 0000.0001) %MON trcstat_ptracer0d_sd         =   6.8284369314711476E-06
(PID.TID 0000.0001) %MON trcstat_ptracer0d_del2       =   3.5724484133464657E-08
(PID.TID 0000.0001) %MON trcstat_ptracer0e_max        =   4.6881124495527207E-04
(PID.TID 0000.0001) %MON trcstat_ptracer0e_min        =   4.0717166724484806E-09
(PID.TID 0000.0001) %MON trcstat_ptracer0e_mean       =   9.1961159927658632E-07
(PID.TID 0000.0001) %MON trcstat_ptracer0e_sd         =   6.8284303763700295E-06
(PID.TID 0000.0001) %MON trcstat_ptracer0e_del2       =   3.5724421475347506E-08
(PID.TID 0000.0001) %MON trcstat_ptracer0f_max        =   4.6880982356307813E-04
(PID.TID 0000.0001) %MON trcstat_ptracer0f_min        =   4.0717167227329803E-09
(PID.TID 0000.0001) %MON trcstat_ptracer0f_mean       =   9.1961146165773169E-07
(PID.TID 0000.0001) %MON trcstat_ptracer0f_sd         =   6.8284249315336787E-06
(PID.TID 0000.0001) %MON trcstat_ptracer0f_del2       =   3.5724368896704866E-08
(PID.TID 0000.0001) %MON trcstat_ptracer0g_max        =   4.6880863501133467E-04
(PID.TID 0000.0001) %MON trcstat_ptracer0g_min        =   4.0717167671950086E-09
(PID.TID 0000.0001) %MON trcstat_ptracer0g_mean       =   9.1961134588575942E-07
(PID.TID 0000.0001) %MON trcstat_ptracer0g_sd         =   6.8284203967239790E-06
(PID.TID 0000.0001) %MON trcstat_ptracer0g_del2       =   3.5724324643741559E-08
(PID.TID 0000.0001) %MON trcstat_ptracer0h_max        =   4.6880763826167432E-04
(PID.TID 0000.0001) %MON trcstat_ptracer0h_min        =   4.0717168065539620E-09
(PID.TID 0000.0001) %MON trcstat_ptracer0h_mean       =   9.1961124819948324E-07
(PID.TID 0000.0001) %MON trcstat_ptracer0h_sd         =   6.8284166092901420E-06
(PID.TID 0000.0001) %MON trcstat_ptracer0h_del2       =   3.5724287284911918E-08
(PID.TID 0000.0001) %MON trcstat_ptracer0i_max        =   4.6880679987370758E-04
(PID.TID 0000.0001) %MON trcstat_ptracer0i_min        =   4.0717168414322153E-09
(PID.TID 0000.0001) %MON trcstat_ptracer0i_mean       =   9.1961116552330998E-07
(PID.TID 0000.0001) %MON trcstat_ptracer0i_sd         =   6.8284134369500124E-06
(PID.TID 0000.0001) %MON trcstat_ptracer0i_del2       =   3.5724255649676694E-08
(PID.TID 0000.0001) %MON trcstat_ptracer0j_max        =   4.6880609255618613E-04
(PID.TID 0000.0001) %MON trcstat_ptracer0j_min        =   4.0717168723695403E-09
(PID.TID 0000.0001) %MON trcstat_ptracer0j_mean       =   9.1961109533778262E-07
(PID.TID 0000.0001) %MON trcstat_ptracer0j_sd         =   6.8284107719732120E-06
(PID.TID 0000.0001) %MON trcstat_ptracer0j_del2       =   3.5724228779125154E-08
(PID.TID 0000.0001) %MON trcstat_ptracer0k_max        =   4.6880549399889494E-04
(PID.TID 0000.0001) %MON trcstat_ptracer0k_min        =   4.0717168998352669E-09
(PID.TID 0000.0001) %MON trcstat_ptracer0k_mean       =   9.1961103557503040E-07
(PID.TID 0000.0001) %MON trcstat_ptracer0k_sd         =   6.8284085264941492E-06
(PID.TID 0000.0001) %MON trcstat_ptracer0k_del2       =   3.5724205886140656E-08
(PID.TID 0000.0001) %MON trcstat_ptracer0l_max        =   4.6880498593047232E-04
(PID.TID 0000.0001) %MON trcstat_ptracer0l_min        =   4.0717169242383697E-09
(PID.TID 0000.0001) %MON trcstat_ptracer0l_mean       =   9.1961098453433653E-07
(PID.TID 0000.0001) %MON trcstat_ptracer0l_sd         =   6.8284066287330914E-06
(PID.TID 0000.0001) %MON trcstat_ptracer0l_del2       =   3.5724186323242770E-08
(PID.TID 0000.0001) %MON trcstat_ptracer0m_max        =   4.6880455335807444E-04
(PID.TID 0000.0001) %MON trcstat_ptracer0m_min        =   4.0717169459360434E-09
(PID.TID 0000.0001) %MON trcstat_ptracer0m_mean       =   9.1961094081386275E-07
(PID.TID 0000.0001) %MON trcstat_ptracer0m_sd         =   6.8284050199487296E-06
(PID.TID 0000.0001) %MON trcstat_ptracer0m_del2       =   3.5724169556608743E-08
(PID.TID 0000.0001) %MON trcstat_ptracer0n_max        =   4.6880418395343134E-04
(PID.TID 0000.0001) %MON trcstat_ptracer0n_min        =   4.0717169652408780E-09
(PID.TID 0000.0001) %MON trcstat_ptracer0n_mean       =   9.1961090325540088E-07
(PID.TID 0000.0001) %MON trcstat_ptracer0n_sd         =   6.8284036519788028E-06
(PID.TID 0000.0001) %MON trcstat_ptracer0n_del2       =   3.5724155145066869E-08
(PID.TID 0000.0001) %MON trcstat_ptracer0o_max        =   4.6880386755677463E-04
(PID.TID 0000.0001) %MON trcstat_ptracer0o_min        =   4.0717169824269631E-09
(PID.TID 0000.0001) %MON trcstat_ptracer0o_mean       =   9.1961087089972781E-07
(PID.TID 0000.0001) %MON trcstat_ptracer0o_sd         =   6.8284024852550562E-06
(PID.TID 0000.0001) %MON trcstat_ptracer0o_del2       =   3.5724142723098787E-08
(PID.TID 0000.0001) %MON trcstat_ptracer0p_max        =   4.6880359577570872E-04
(PID.TID 0000.0001) %MON trcstat_ptracer0p_min        =   4.0717169977350628E-09
(PID.TID 0000.0001) %MON trcstat_ptracer0p_mean       =   9.1961084295030617E-07
(PID.TID 0000.0001) %MON trcstat_ptracer0p_sd         =   6.8284014871995895E-06
(PID.TID 0000.0001) %MON trcstat_ptracer0p_del2       =   3.5724131987067519E-08
(PID.TID 0000.0001) %MON trcstat_ptracer0q_max        =   4.6880336166057730E-04
(PID.TID 0000.0001) %MON trcstat_ptracer0q_min        =   4.0717170113770107E-09
(PID.TID 0000.0001) %MON trcstat_ptracer0q_mean       =   9.1961081874395107E-07
(PID.TID 0000.0001) %MON trcstat_ptracer0q_sd         =   6.8284006309282775E-06
(PID.TID 0000.0001) %MON trcstat_ptracer0q_del2       =   3.5724122684050542E-08
(PID.TID 0000.0001) %MON trcstat_ptracer0r_max        =   4.6880315944148980E-04
(PID.TID 0000.0001) %MON trcstat_ptracer0r_min        =   4.0717170235394873E-09
(PID.TID 0000.0001) %MON trcstat_ptracer0r_mean       =   9.1961079772694490E-07
(PID.TID 0000.0001) %MON trcstat_ptracer0r_sd         =   6.8283998942020576E-06
(PID.TID 0000.0001) %MON trcstat_ptracer0r_del2       =   3.5724114602772587E-08
(PID.TID 0000.0001) %MON trcstat_ptracer0s_max        =   4.6880298431507589E-04
(PID.TID 0000.0001) %MON trcstat_ptracer0s_min        =   4.0717170343872306E-09
(PID.TID 0000.0001) %MON trcstat_ptracer0s_mean       =   9.1961077943562447E-07
(PID.TID 0000.0001) %MON trcstat_ptracer0s_sd         =   6.8283992585772320E-06
(PID.TID 0000.0001) %MON trcstat_ptracer0s_del2       =   3.5724107566232473E-08
(PID.TID 0000.0001) %MON trcstat_ptracer0t_max        =   4.6880283227136266E-04
(PID.TID 0000.0001) %MON trcstat_ptracer0t_min        =   4.0717170440658104E-09
(PID.TID 0000.0001) %MON trcstat_ptracer0t_mean       =   9.1961076348061711E-07
(PID.TID 0000.0001) %MON trcstat_ptracer0t_sd         =   6.8283987087174340E-06
(PID.TID 0000.0001) %MON trcstat_ptracer0t_del2       =   3.5724101425702631E-08
(PID.TID 0000.0001) %MON trcstat_ptracer0u_max        =   4.6880269995304777E-04
(PID.TID 0000.0001) %MON trcstat_ptracer0u_min        =   4.0717170527040071E-09
(PID.TID 0000.0001) %MON trcstat_ptracer0u_mean       =   9.1961074953393842E-07
(PID.TID 0000.0001) %MON trcstat_ptracer0u_sd         =   6.8283982318346465E-06
(PID.TID 0000.0001) %MON trcstat_ptracer0u_del2       =   3.5724096055833051E-08
(PID.TID 0000.0001) %MON trcstat_ptracer0v_max        =   4.6880258454094900E-04
(PID.TID 0000.0001) %MON trcstat_ptracer0v_min        =   4.0717170604158897E-09
(PID.TID 0000.0001) %MON trcstat_ptracer0v_mean       =   9.1961073731846548E-07
(PID.TID 0000.0001) %MON trcstat_ptracer0v_sd         =   6.8283978172353275E-06
(PID.TID 0000.0001) %MON trcstat_ptracer0v_del2       =   3.5724091350654093E-08
(PID.TID 0000.0001) %MON trcstat_ptracer0w_max        =   4.6880248366061957E-04
(PID.TID 0000.0001) %MON trcstat_ptracer0w_min        =   4.0717170673025802E-09
(PID.TID 0000.0001) %MON trcstat_ptracer0w_mean       =   9.1961072659935893E-07
(PID.TID 0000.0001) %MON trcstat_ptracer0w_sd         =   6.8283974559513615E-06
(PID.TID 0000.0001) %MON trcstat_ptracer0w_del2       =   3.5724087220305568E-08
(PID.TID 0000.0001) %MON trcstat_ptracer0x_max        =   4.6880239530609367E-04
(PID.TID 0000.0001) %MON trcstat_ptracer0x_min        =   4.0717170734538129E-09
(PID.TID 0000.0001) %MON trcstat_ptracer0x_mean       =   9.1961071717697236E-07
(PID.TID 0000.0001) %MON trcstat_ptracer0x_sd         =   6.8283971404387977E-06
(PID.TID 0000.0001) %MON trcstat_ptracer0x_del2       =   3.5724083588354458E-08
(PID.TID 0000.0001) %MON trcstat_ptracer0y_max        =   4.6880231777750964E-04
(PID.TID 0000.0001) %MON trcstat_ptracer0y_min        =   4.0717170789492783E-09
(PID.TID 0000.0001) %MON trcstat_ptracer0y_mean       =   9.1961070888108583E-07
(PID.TID 0000.0001) %MON trcstat_ptracer0y_sd         =   6.8283968643329477E-06
(PID.TID 0000.0001) %MON trcstat_ptracer0y_del2       =   3.5724080389590688E-08
(PID.TID 0000.0001) %MON trcstat_ptracer0z_max        =   4.6880224962999055E-04
(PID.TID 0000.0001) %MON trcstat_ptracer0z_min        =   4.0717170838598244E-09
(PID.TID 0000.0001) %MON trcstat_ptracer0z_mean       =   9.1961070156612730E-07
(PID.TID 0000.0001) %MON trcstat_ptracer0z_sd         =   6.8283966222471366E-06
(PID.TID 0000.0001) %MON trcstat_ptracer0z_del2       =   3.5724077568213104E-08
(PID.TID 0000.0001) %MON trcstat_ptracer0A_max        =   4.6880218963166073E-04
(PID.TID 0000.0001) %MON trcstat_ptracer0A_min        =   4.0717170882484469E-09
(PID.TID 0000.0001) %MON trcstat_ptracer0A_mean       =   9.1961069510723204E-07
(PID.TID 0000.0001) %MON trcstat_ptracer0A_sd         =   6.8283964096087013E-06
(PID.TID 0000.0001) %MON trcstat_ptracer0A_del2       =   3.5724075076332502E-08
(PID.TID 0000.0001) %MON trcstat_ptracer0B_max        =   4.6880213672909554E-04
(PID.TID 0000.0001) %MON trcstat_ptracer0B_min        =   4.0717170921712103E-09
(PID.TID 0000.0001) %MON trcstat_ptracer0B_mean       =   9.1961068939700146E-07
(PID.TID 0000.0001) %MON trcstat_ptracer0B_sd         =   6.8283962225241412E-06
(PID.TID 0000.0001) %MON trcstat_ptracer0B_del2       =   3.5724072872731827E-08
(PID.TID 0000.0001) %MON trcstat_ptracer0C_max        =   6.7919385306497649E-08
(PID.TID 0000.0001) %MON trcstat_ptracer0C_min        =   4.8862630768408975E-13
(PID.TID 0000.0001) %MON trcstat_ptracer0C_mean       =   1.1146606668874292E-10
(PID.TID 0000.0001) %MON trcstat_ptracer0C_sd         =   8.0124962914396516E-10
(PID.TID 0000.0001) %MON trcstat_ptracer0C_del2       =   4.0125972068858974E-12
(PID.TID 0000.0001) %MON trcstat_ptracer0D_max        =   6.8882723900235732E-08
(PID.TID 0000.0001) %MON trcstat_ptracer0D_min        =   4.8068252968052109E-13
(PID.TID 0000.0001) %MON trcstat_ptracer0D_mean       =   1.0814323803984330E-10
(PID.TID 0000.0001) %MON trcstat_ptracer0D_sd         =   7.7507232045451816E-10
(PID.TID 0000.0001) %MON trcstat_ptracer0D_del2       =   3.8568212278342419E-12
(PID.TID 0000.0001) %MON trcstat_ptracer0E_max        =   6.6785159810865004E-08
(PID.TID 0000.0001) %MON trcstat_ptracer0E_min        =   4.4053194008673635E-13
(PID.TID 0000.0001) %MON trcstat_ptracer0E_mean       =   1.0355992216863375E-10
(PID.TID 0000.0001) %MON trcstat_ptracer0E_sd         =   7.4336302118688105E-10
(PID.TID 0000.0001) %MON trcstat_ptracer0E_del2       =   3.7050167762022675E-12
(PID.TID 0000.0001) %MON trcstat_ptracer0F_max        =   6.0086929902804582E-08
(PID.TID 0000.0001) %MON trcstat_ptracer0F_min        =   4.0810802009669288E-13
(PID.TID 0000.0001) %MON trcstat_ptracer0F_mean       =   9.4228490189016225E-11
(PID.TID 0000.0001) %MON trcstat_ptracer0F_sd         =   6.7674157449107730E-10
(PID.TID 0000.0001) %MON trcstat_ptracer0F_del2       =   3.3787307142926733E-12
(PID.TID 0000.0001) %MON trcstat_ptracer0G_max        =   5.3593483381863881E-08
(PID.TID 0000.0001) %MON trcstat_ptracer0G_min        =   3.7887417116541218E-13
(PID.TID 0000.0001) %MON trcstat_ptracer0G_mean       =   8.5625430666078132E-11
(PID.TID 0000.0001) %MON trcstat_ptracer0G_sd         =   6.1577055196959769E-10
(PID.TID 0000.0001) %MON trcstat_ptracer0G_del2       =   3.0883173282154239E-12
(PID.TID 0000.0001) %MON trcstat_ptracer0H_max        =   5.1933883386040096E-08
(PID.TID 0000.0001) %MON trcstat_ptracer0H_min        =   3.5300584400448794E-13
(PID.TID 0000.0001) %MON trcstat_ptracer0H_mean       =   8.0289638919639138E-11
(PID.TID 0000.0001) %MON trcstat_ptracer0H_sd         =   5.7961506677950688E-10
(PID.TID 0000.0001) %MON trcstat_ptracer0H_del2       =   2.9171931698529852E-12
(PID.TID 0000.0001) %MON trcstat_ptracer0I_max        =   4.5710353160791173E-08
(PID.TID 0000.0001) %MON trcstat_ptracer0I_min        =   3.3033419151088879E-13
(PID.TID 0000.0001) %MON trcstat_ptracer0I_mean       =   7.3152202496753577E-11
(PID.TID 0000.0001) %MON trcstat_ptracer0I_sd         =   5.2861505152959587E-10
(PID.TID 0000.0001) %MON trcstat_ptracer0I_del2       =   2.6703548481615117E-12
(PID.TID 0000.0001) %MON trcstat_ptracer0J_max        =   4.0443798514936061E-08
(PID.TID 0000.0001) %MON trcstat_ptracer0J_min        =   3.1110709413673396E-13
(PID.TID 0000.0001) %MON trcstat_ptracer0J_mean       =   6.7066413267084882E-11
(PID.TID 0000.0001) %MON trcstat_ptracer0J_sd         =   4.8534725088495849E-10
(PID.TID 0000.0001) %MON trcstat_ptracer0J_del2       =   2.4609571230027042E-12
(PID.TID 0000.0001) %MON trcstat_ptracer0K_max        =   3.6000093757915464E-08
(PID.TID 0000.0001) %MON trcstat_ptracer0K_min        =   2.9505466845156875E-13
(PID.TID 0000.0001) %MON trcstat_ptracer0K_mean       =   6.1919139306576236E-11
(PID.TID 0000.0001) %MON trcstat_ptracer0K_sd         =   4.4891052801168284E-10
(PID.TID 0000.0001) %MON trcstat_ptracer0K_del2       =   2.2847066408625146E-12
(PID.TID 0000.0001) %MON trcstat_ptracer0L_max        =   3.2143903478014579E-08
(PID.TID 0000.0001) %MON trcstat_ptracer0L_min        =   2.8181008991090750E-13
(PID.TID 0000.0001) %MON trcstat_ptracer0L_mean       =   5.7534393409196158E-11
(PID.TID 0000.0001) %MON trcstat_ptracer0L_sd         =   4.1797232675199565E-10
(PID.TID 0000.0001) %MON trcstat_ptracer0L_del2       =   2.1349530739221688E-12
(PID.TID 0000.0001) %MON trcstat_ptracer0M_max        =   3.1727082960607628E-08
(PID.TID 0000.0001) %MON trcstat_ptracer0M_min        =   2.7128284208366753E-13
(PID.TID 0000.0001) %MON trcstat_ptracer0M_mean       =   5.5236055639004790E-11
(PID.TID 0000.0001) %MON trcstat_ptracer0M_sd         =   4.0213500708652416E-10
(PID.TID 0000.0001) %MON trcstat_ptracer0M_del2       =   2.0587971243056413E-12
(PID.TID 0000.0001) %MON trcstat_ptracer0N_max        =   2.8318778257231967E-08
(PID.TID 0000.0001) %MON trcstat_ptracer0N_min        =   2.6352466694731050E-13
(PID.TID 0000.0001) %MON trcstat_ptracer0N_mean       =   5.1896187625005560E-11
(PID.TID 0000.0001) %MON trcstat_ptracer0N_sd         =   3.7839312472827053E-10
(PID.TID 0000.0001) %MON trcstat_ptracer0N_del2       =   1.9431430440382511E-12
(PID.TID 0000.0001) %MON trcstat_ptracer0O_max        =   2.5531428244294079E-08
(PID.TID 0000.0001) %MON trcstat_ptracer0O_min        =   2.5837627739164959E-13
(PID.TID 0000.0001) %MON trcstat_ptracer0O_mean       =   4.9211707458131327E-11
(PID.TID 0000.0001) %MON trcstat_ptracer0O_sd         =   3.5937496291349616E-10
(PID.TID 0000.0001) %MON trcstat_ptracer0O_del2       =   1.8503772472460811E-12
(PID.TID 0000.0001) %MON trcstat_ptracer0P_max        =   2.3228922398485807E-08
(PID.TID 0000.0001) %MON trcstat_ptracer0P_min        =   2.5575527985137911E-13
(PID.TID 0000.0001) %MON trcstat_ptracer0P_mean       =   4.7068796258183776E-11
(PID.TID 0000.0001) %MON trcstat_ptracer0P_sd         =   3.4416580144699094E-10
(PID.TID 0000.0001) %MON trcstat_ptracer0P_del2       =   1.7758150694710038E-12
(PID.TID 0000.0001) %MON trcstat_ptracer0Q_max        =   2.1413077080123360E-08
(PID.TID 0000.0001) %MON trcstat_ptracer0Q_min        =   2.5570103414483947E-13
(PID.TID 0000.0001) %MON trcstat_ptracer0Q_mean       =   4.5375819600378874E-11
(PID.TID 0000.0001) %MON trcstat_ptracer0Q_sd         =   3.3212471303141116E-10
(PID.TID 0000.0001) %MON trcstat_ptracer0Q_del2       =   1.7163084045392048E-12
(PID.TID 0000.0001) %MON trcstat_ptracer0R_max        =   2.1005618519251423E-08
(PID.TID 0000.0001) %MON trcstat_ptracer0R_min        =   2.5595595617492270E-13
(PID.TID 0000.0001) %MON trcstat_ptracer0R_mean       =   4.4073712640337056E-11
(PID.TID 0000.0001) %MON trcstat_ptracer0R_sd         =   3.2274111110076207E-10
(PID.TID 0000.0001) %MON trcstat_ptracer0R_del2       =   1.6693299790489931E-12
(PID.TID 0000.0001) %MON trcstat_ptracer0S_max        =   2.0647555517403734E-08
(PID.TID 0000.0001) %MON trcstat_ptracer0S_min        =   2.5349291499718226E-13
(PID.TID 0000.0001) %MON trcstat_ptracer0S_mean       =   4.3078530470877727E-11
(PID.TID 0000.0001) %MON trcstat_ptracer0S_sd         =   3.1538463896538854E-10
(PID.TID 0000.0001) %MON trcstat_ptracer0S_del2       =   1.6318593617429017E-12
(PID.TID 0000.0001) %MON trcstat_ptracer0T_max        =   2.0319935096490005E-08
(PID.TID 0000.0001) %MON trcstat_ptracer0T_min        =   2.5211916645432395E-13
(PID.TID 0000.0001) %MON trcstat_ptracer0T_mean       =   4.2328916461896774E-11
(PID.TID 0000.0001) %MON trcstat_ptracer0T_sd         =   3.0958521427304519E-10
(PID.TID 0000.0001) %MON trcstat_ptracer0T_del2       =   1.6015206683768444E-12
(PID.TID 0000.0001) %MON trcstat_ptracer0U_max        =   2.0003849484627412E-08
(PID.TID 0000.0001) %MON trcstat_ptracer0U_min        =   2.5182194397360780E-13
(PID.TID 0000.0001) %MON trcstat_ptracer0U_mean       =   4.1771657719198835E-11
(PID.TID 0000.0001) %MON trcstat_ptracer0U_sd         =   3.0491816796793909E-10
(PID.TID 0000.0001) %MON trcstat_ptracer0U_del2       =   1.5761974282335771E-12
(PID.TID 0000.0001) %MON trcstat_ptracer0V_max        =   1.9679723291981868E-08
(PID.TID 0000.0001) %MON trcstat_ptracer0V_min        =   2.5267073850074601E-13
(PID.TID 0000.0001) %MON trcstat_ptracer0V_mean       =   4.1360670615916408E-11
(PID.TID 0000.0001) %MON trcstat_ptracer0V_sd         =   3.0101473718879965E-10
(PID.TID 0000.0001) %MON trcstat_ptracer0V_del2       =   1.5539833915016724E-12
(PID.TID 0000.0001) %MON trcstat_ptracer0W_max        =   1.9326569399516185E-08
(PID.TID 0000.0001) %MON trcstat_ptracer0W_min        =   2.5484780965016561E-13
(PID.TID 0000.0001) %MON trcstat_ptracer0W_mean       =   4.1059905641119990E-11
(PID.TID 0000.0001) %MON trcstat_ptracer0W_sd         =   2.9756458801507861E-10
(PID.TID 0000.0001) %MON trcstat_ptracer0W_del2       =   1.5332289356820700E-12
(PID.TID 0000.0001) %MON trcstat_ptracer0X_max        =   1.8921215490925275E-08
(PID.TID 0000.0001) %MON trcstat_ptracer0X_min        =   2.5870005175001133E-13
(PID.TID 0000.0001) %MON trcstat_ptracer0X_mean       =   4.0841465226258458E-11
(PID.TID 0000.0001) %MON trcstat_ptracer0X_sd         =   2.9429940473964086E-10
(PID.TID 0000.0001) %MON trcstat_ptracer0X_del2       =   1.5124671701044813E-12
(PID.TID 0000.0001) %MON trcstat_ptracer0Y_max        =   1.8437542491378188E-08
(PID.TID 0000.0001) %MON trcstat_ptracer0Y_min        =   2.6482691944903268E-13
(PID.TID 0000.0001) %MON trcstat_ptracer0Y_mean       =   4.0683993976033560E-11
(PID.TID 0000.0001) %MON trcstat_ptracer0Y_sd         =   2.9098062604031172E-10
(PID.TID 0000.0001) %MON trcstat_ptracer0Y_del2       =   1.4903755530228782E-12
(PID.TID 0000.0001) %MON trcstat_ptracer0Z_max        =   1.7845844979952927E-08
(PID.TID 0000.0001) %MON trcstat_ptracer0Z_min        =   2.7423155348865566E-13
(PID.TID 0000.0001) %MON trcstat_ptracer0Z_mean       =   4.0571320424411446E-11
(PID.TID 0000.0001) %MON trcstat_ptracer0Z_sd         =   2.8739190315234175E-10
(PID.TID 0000.0001) %MON trcstat_ptracer0Z_del2       =   1.4657769654067873E-12
(PID.TID 0000.0001) %MON trcstat_ptracer1a_max        =   1.7445129461985355E-08
(PID.TID 0000.0001) %MON trcstat_ptracer1a_min        =   2.8858488457498360E-13
(PID.TID 0000.0001) %MON trcstat_ptracer1a_mean       =   4.0491329374418915E-11
(PID.TID 0000.0001) %MON trcstat_ptracer1a_sd         =   2.8333718403374122E-10
(PID.TID 0000.0001) %MON trcstat_ptracer1a_del2       =   1.4377163981024642E-12
(PID.TID 0000.0001) %MON trcstat_ptracer1b_max        =   2.1237889436195586E-08
(PID.TID 0000.0001) %MON trcstat_ptracer1b_min        =   1.7958902360627194E-13
(PID.TID 0000.0001) %MON trcstat_ptracer1b_mean       =   4.0634282345054802E-11
(PID.TID 0000.0001) %MON trcstat_ptracer1b_sd         =   3.0326313338395993E-10
(PID.TID 0000.0001) %MON trcstat_ptracer1b_del2       =   1.6007211450894160E-12
(PID.TID 0000.0001) %MON trcstat_ptracer1c_max        =   2.1179584160854371E-08
(PID.TID 0000.0001) %MON trcstat_ptracer1c_min        =   1.7959376690639917E-13
(PID.TID 0000.0001) %MON trcstat_ptracer1c_mean       =   4.0627636536047266E-11
(PID.TID 0000.0001) %MON trcstat_ptracer1c_sd         =   3.0304967106261145E-10
(PID.TID 0000.0001) %MON trcstat_ptracer1c_del2       =   1.5980929215866824E-12
(PID.TID 0000.0001) %MON trcstat_ptracer1d_max        =   2.1127397727712794E-08
(PID.TID 0000.0001) %MON trcstat_ptracer1d_min        =   1.7959801228745518E-13
(PID.TID 0000.0001) %MON trcstat_ptracer1d_mean       =   4.0621688249082406E-11
(PID.TID 0000.0001) %MON trcstat_ptracer1d_sd         =   3.0285907852681781E-10
(PID.TID 0000.0001) %MON trcstat_ptracer1d_del2       =   1.5957482858757539E-12
(PID.TID 0000.0001) %MON trcstat_ptracer1e_max        =   2.1080688150441861E-08
(PID.TID 0000.0001) %MON trcstat_ptracer1e_min        =   1.7960181201676352E-13
(PID.TID 0000.0001) %MON trcstat_ptracer1e_mean       =   4.0616364284231924E-11
(PID.TID 0000.0001) %MON trcstat_ptracer1e_sd         =   3.0268886695553466E-10
(PID.TID 0000.0001) %MON trcstat_ptracer1e_del2       =   1.5936559718692619E-12
(PID.TID 0000.0001) %MON trcstat_ptracer1f_max        =   2.1038880770470372E-08
(PID.TID 0000.0001) %MON trcstat_ptracer1f_min        =   1.7960521287522687E-13
(PID.TID 0000.0001) %MON trcstat_ptracer1f_mean       =   4.0611599121772025E-11
(PID.TID 0000.0001) %MON trcstat_ptracer1f_sd         =   3.0253682303869091E-10
(PID.TID 0000.0001) %MON trcstat_ptracer1f_del2       =   1.5917882802582571E-12
(PID.TID 0000.0001) %MON trcstat_ptracer1g_max        =   2.1001461201377201E-08
(PID.TID 0000.0001) %MON trcstat_ptracer1g_min        =   1.7960825673319582E-13
(PID.TID 0000.0001) %MON trcstat_ptracer1g_mean       =   4.0607334116584194E-11
(PID.TID 0000.0001) %MON trcstat_ptracer1g_sd         =   3.0240098035678268E-10
(PID.TID 0000.0001) %MON trcstat_ptracer1g_del2       =   1.5901206548561498E-12
(PID.TID 0000.0001) %MON trcstat_ptracer1h_max        =   2.0967969011748042E-08
(PID.TID 0000.0001) %MON trcstat_ptracer1h_min        =   1.7961098106590010E-13
(PID.TID 0000.0001) %MON trcstat_ptracer1h_mean       =   4.0603516777057857E-11
(PID.TID 0000.0001) %MON trcstat_ptracer1h_sd         =   3.0227959060766316E-10
(PID.TID 0000.0001) %MON trcstat_ptracer1h_del2       =   1.5886313074146218E-12
(PID.TID 0000.0001) %MON trcstat_ptracer1i_max        =   2.0937992069353241E-08
(PID.TID 0000.0001) %MON trcstat_ptracer1i_min        =   1.7961341941478339E-13
(PID.TID 0000.0001) %MON trcstat_ptracer1i_mean       =   4.0600100119604035E-11
(PID.TID 0000.0001) %MON trcstat_ptracer1i_sd         =   3.0217109841123998E-10
(PID.TID 0000.0001) %MON trcstat_ptracer1i_del2       =   1.5873008903792921E-12
(PID.TID 0000.0001) %MON trcstat_ptracer1j_max        =   2.0911161477543331E-08
(PID.TID 0000.0001) %MON trcstat_ptracer1j_min        =   1.7961560180041834E-13
(PID.TID 0000.0001) %MON trcstat_ptracer1j_mean       =   4.0597042090855443E-11
(PID.TID 0000.0001) %MON trcstat_ptracer1j_sd         =   3.0207411920856380E-10
(PID.TID 0000.0001) %MON trcstat_ptracer1j_del2       =   1.5861122109741208E-12
(PID.TID 0000.0001) %MON trcstat_ptracer1k_max        =   2.0887147041962010E-08
(PID.TID 0000.0001) %MON trcstat_ptracer1k_min        =   1.7961755509207990E-13
(PID.TID 0000.0001) %MON trcstat_ptracer1k_mean       =   4.0594305050452844E-11
(PID.TID 0000.0001) %MON trcstat_ptracer1k_sd         =   3.0198741984319007E-10
(PID.TID 0000.0001) %MON trcstat_ptracer1k_del2       =   1.5850499809774599E-12
(PID.TID 0000.0001) %MON trcstat_ptracer1l_max        =   2.0865653212129874E-08
(PID.TID 0000.0001) %MON trcstat_ptracer1l_min        =   1.7961930333853334E-13
(PID.TID 0000.0001) %MON trcstat_ptracer1l_mean       =   4.0591855308072139E-11
(PID.TID 0000.0001) %MON trcstat_ptracer1l_sd         =   3.0190990147278181E-10
(PID.TID 0000.0001) %MON trcstat_ptracer1l_del2       =   1.5841005973781243E-12
(PID.TID 0000.0001) %MON trcstat_ptracer1m_max        =   2.0846415448234195E-08
(PID.TID 0000.0001) %MON trcstat_ptracer1m_min        =   1.7962086806409722E-13
(PID.TID 0000.0001) %MON trcstat_ptracer1m_mean       =   4.0589662709000205E-11
(PID.TID 0000.0001) %MON trcstat_ptracer1m_sd         =   3.0184058450936132E-10
(PID.TID 0000.0001) %MON trcstat_ptracer1m_del2       =   1.5832519497987292E-12
(PID.TID 0000.0001) %MON trcstat_ptracer1n_max        =   2.0829196968642030E-08
(PID.TID 0000.0001) %MON trcstat_ptracer1n_min        =   1.7962226853363350E-13
(PID.TID 0000.0001) %MON trcstat_ptracer1n_mean       =   4.0587700263175935E-11
(PID.TID 0000.0001) %MON trcstat_ptracer1n_sd         =   3.0177859532939274E-10
(PID.TID 0000.0001) %MON trcstat_ptracer1n_del2       =   1.5824932511658351E-12
(PID.TID 0000.0001) %MON trcstat_ptracer1o_max        =   2.0813785838295440E-08
(PID.TID 0000.0001) %MON trcstat_ptracer1o_min        =   1.7962352198972240E-13
(PID.TID 0000.0001) %MON trcstat_ptracer1o_mean       =   4.0585943813137990E-11
(PID.TID 0000.0001) %MON trcstat_ptracer1o_sd         =   3.0172315453088908E-10
(PID.TID 0000.0001) %MON trcstat_ptracer1o_del2       =   1.5818148886077074E-12
(PID.TID 0000.0001) %MON trcstat_ptracer1p_max        =   2.0799992362308121E-08
(PID.TID 0000.0001) %MON trcstat_ptracer1p_min        =   1.7962464386494241E-13
(PID.TID 0000.0001) %MON trcstat_ptracer1p_mean       =   4.0584371736801890E-11
(PID.TID 0000.0001) %MON trcstat_ptracer1p_sd         =   3.0167356654535388E-10
(PID.TID 0000.0001) %MON trcstat_ptracer1p_del2       =   1.5812082919860663E-12
(PID.TID 0000.0001) %MON trcstat_ptracer1q_max        =   2.0787646752808794E-08
(PID.TID 0000.0001) %MON trcstat_ptracer1q_min        =   1.7962564797186774E-13
(PID.TID 0000.0001) %MON trcstat_ptracer1q_mean       =   4.0582964681412727E-11
(PID.TID 0000.0001) %MON trcstat_ptracer1q_sd         =   3.0162921043831930E-10
(PID.TID 0000.0001) %MON trcstat_ptracer1q_del2       =   1.5806658178289804E-12
(PID.TID 0000.0001) %MON trcstat_ptracer1r_max        =   2.0776597040416106E-08
(PID.TID 0000.0001) %MON trcstat_ptracer1r_min        =   1.7962654667312152E-13
(PID.TID 0000.0001) %MON trcstat_ptracer1r_mean       =   4.0581705325408503E-11
(PID.TID 0000.0001) %MON trcstat_ptracer1r_sd         =   3.0158953175444565E-10
(PID.TID 0000.0001) %MON trcstat_ptracer1r_del2       =   1.5801806467388621E-12
(PID.TID 0000.0001) %MON trcstat_ptracer1s_max        =   2.0766707204720656E-08
(PID.TID 0000.0001) %MON trcstat_ptracer1s_min        =   1.7962735103358111E-13
(PID.TID 0000.0001) %MON trcstat_ptracer1s_mean       =   4.0580578165264703E-11
(PID.TID 0000.0001) %MON trcstat_ptracer1s_sd         =   3.0155403528196782E-10
(PID.TID 0000.0001) %MON trcstat_ptracer1s_del2       =   1.5797466926107472E-12
(PID.TID 0000.0001) %MON trcstat_ptracer1t_max        =   2.0757855500829111E-08
(PID.TID 0000.0001) %MON trcstat_ptracer1t_min        =   1.7962807095660358E-13
(PID.TID 0000.0001) %MON trcstat_ptracer1t_mean       =   4.0579569324702951E-11
(PID.TID 0000.0001) %MON trcstat_ptracer1t_sd         =   3.0152227862750903E-10
(PID.TID 0000.0001) %MON trcstat_ptracer1t_del2       =   1.5793585222187504E-12
(PID.TID 0000.0001) %MON trcstat_ptracer1u_max        =   2.0749932961425688E-08
(PID.TID 0000.0001) %MON trcstat_ptracer1u_min        =   1.7962871530595408E-13
(PID.TID 0000.0001) %MON trcstat_ptracer1u_mean       =   4.0578666383915224E-11
(PID.TID 0000.0001) %MON trcstat_ptracer1u_sd         =   3.0149386650617498E-10
(PID.TID 0000.0001) %MON trcstat_ptracer1u_del2       =   1.5790112839188753E-12
(PID.TID 0000.0001) %MON trcstat_ptracer1v_max        =   2.0742842055955729E-08
(PID.TID 0000.0001) %MON trcstat_ptracer1v_min        =   1.7962929201493458E-13
(PID.TID 0000.0001) %MON trcstat_ptracer1v_mean       =   4.0577858226710161E-11
(PID.TID 0000.0001) %MON trcstat_ptracer1v_sd         =   3.0146844566379072E-10
(PID.TID 0000.0001) %MON trcstat_ptracer1v_del2       =   1.5787006443793719E-12
(PID.TID 0000.0001) %MON trcstat_ptracer1w_max        =   2.0736495490461673E-08
(PID.TID 0000.0001) %MON trcstat_ptracer1w_min        =   1.7962980818405649E-13
(PID.TID 0000.0001) %MON trcstat_ptracer1w_mean       =   4.0577134903692470E-11
(PID.TID 0000.0001) %MON trcstat_ptracer1w_sd         =   3.0144570035842574E-10
(PID.TID 0000.0001) %MON trcstat_ptracer1w_del2       =   1.5784227323896225E-12
(PID.TID 0000.0001) %MON trcstat_ptracer1x_max        =   2.0730815133325741E-08
(PID.TID 0000.0001) %MON trcstat_ptracer1x_min        =   1.7963027016846267E-13
(PID.TID 0000.0001) %MON trcstat_ptracer1x_mean       =   4.0576487509806461E-11
(PID.TID 0000.0001) %MON trcstat_ptracer1x_sd         =   3.0142534833731246E-10
(PID.TID 0000.0001) %MON trcstat_ptracer1x_del2       =   1.5781740889188479E-12
(PID.TID 0000.0001) %MON trcstat_ptracer1y_max        =   2.0725731053718098E-08
(PID.TID 0000.0001) %MON trcstat_ptracer1y_min        =   1.7963068365616925E-13
(PID.TID 0000.0001) %MON trcstat_ptracer1y_mean       =   4.0575908074722579E-11
(PID.TID 0000.0001) %MON trcstat_ptracer1y_sd         =   3.0140713725300471E-10
(PID.TID 0000.0001) %MON trcstat_ptracer1y_del2       =   1.5779516226996393E-12
(PID.TID 0000.0001) %MON trcstat_ptracer1z_max        =   2.0721180660931843E-08
(PID.TID 0000.0001) %MON trcstat_ptracer1z_min        =   1.7963105373809799E-13
(PID.TID 0000.0001) %MON trcstat_ptracer1z_mean       =   4.0575389464732303E-11
(PID.TID 0000.0001) %MON trcstat_ptracer1z_sd         =   3.0139084146928509E-10
(PID.TID 0000.0001) %MON trcstat_ptracer1z_del2       =   1.5777525707007935E-12
(PID.TID 0000.0001) %MON trcstat_ptracer1A_max        =   2.0717107934024433E-08
(PID.TID 0000.0001) %MON trcstat_ptracer1A_min        =   1.7963138497075453E-13
(PID.TID 0000.0001) %MON trcstat_ptracer1A_mean       =   4.0574925294936735E-11
(PID.TID 0000.0001) %MON trcstat_ptracer1A_sd         =   3.0137625921325630E-10
(PID.TID 0000.0001) %MON trcstat_ptracer1A_del2       =   1.5775744629316044E-12
(PID.TID 0000.0001) %MON trcstat_ptracer1B_max        =   2.0713462732293778E-08
(PID.TID 0000.0001) %MON trcstat_ptracer1B_min        =   1.7963168143232774E-13
(PID.TID 0000.0001) %MON trcstat_ptracer1B_mean       =   4.0574509850648412E-11
(PID.TID 0000.0001) %MON trcstat_ptracer1B_sd         =   3.0136321003508994E-10
(PID.TID 0000.0001) %MON trcstat_ptracer1B_del2       =   1.5774150910869883E-12
(PID.TID 0000.0001) %MON trcstat_ptracer1C_max        =   2.0710200178110196E-08
(PID.TID 0000.0001) %MON trcstat_ptracer1C_min        =   1.7963194677290184E-13
(PID.TID 0000.0001) %MON trcstat_ptracer1C_mean       =   4.0574138017046557E-11
(PID.TID 0000.0001) %MON trcstat_ptracer1C_sd         =   3.0135153254143617E-10
(PID.TID 0000.0001) %MON trcstat_ptracer1C_del2       =   1.5772724806014928E-12
(PID.TID 0000.0001) %MON trcstat_ptracer1D_max        =   2.0707280104513726E-08
(PID.TID 0000.0001) %MON trcstat_ptracer1D_min        =   1.7963218425939466E-13
(PID.TID 0000.0001) %MON trcstat_ptracer1D_mean       =   4.0573805216210783E-11
(PID.TID 0000.0001) %MON trcstat_ptracer1D_sd         =   3.0134108237236348E-10
(PID.TID 0000.0001) %MON trcstat_ptracer1D_del2       =   1.5771448657310267E-12
(PID.TID 0000.0001) %MON trcstat_ptracer1E_max        =   2.0704666560782549E-08
(PID.TID 0000.0001) %MON trcstat_ptracer1E_min        =   1.7963239681578096E-13
(PID.TID 0000.0001) %MON trcstat_ptracer1E_mean       =   4.0573507350766776E-11
(PID.TID 0000.0001) %MON trcstat_ptracer1E_sd         =   3.0133173039516820E-10
(PID.TID 0000.0001) %MON trcstat_ptracer1E_del2       =   1.5770306673260193E-12
(PID.TID 0000.0001) %MON trcstat_ptracer1F_max        =   5.4532214400889309E-03
(PID.TID 0000.0001) %MON trcstat_ptracer1F_min        =   5.1750404027249758E-08
(PID.TID 0000.0001) %MON trcstat_ptracer1F_mean       =   1.0455033782775724E-05
(PID.TID 0000.0001) %MON trcstat_ptracer1F_sd         =   7.7494026512201452E-05
(PID.TID 0000.0001) %MON trcstat_ptracer1F_del2       =   4.1076143060358293E-07
(PID.TID 0000.0001) %MON trcstat_ptracer1G_max        =   5.4044470808525535E-03
(PID.TID 0000.0001) %MON trcstat_ptracer1G_min        =   5.1672202624918349E-08
(PID.TID 0000.0001) %MON trcstat_ptracer1G_mean       =   1.0392584247457415E-05
(PID.TID 0000.0001) %MON trcstat_ptracer1G_sd         =   7.7020967731203079E-05
(PID.TID 0000.0001) %MON trcstat_ptracer1G_del2       =   4.0686485311435226E-07
(PID.TID 0000.0001) %MON trcstat_ptracer1H_max        =   5.3718083571334483E-03
(PID.TID 0000.0001) %MON trcstat_ptracer1H_min        =   5.1684805880668841E-08
(PID.TID 0000.0001) %MON trcstat_ptracer1H_mean       =   1.0538559130011764E-05
(PID.TID 0000.0001) %MON trcstat_ptracer1H_sd         =   7.7830394695523259E-05
(PID.TID 0000.0001) %MON trcstat_ptracer1H_del2       =   4.0878719366500200E-07
(PID.TID 0000.0001) %MON trcstat_ptracer1I_max        =   5.2814665754177875E-03
(PID.TID 0000.0001) %MON trcstat_ptracer1I_min        =   5.1697864803803821E-08
(PID.TID 0000.0001) %MON trcstat_ptracer1I_mean       =   1.0388376821364962E-05
(PID.TID 0000.0001) %MON trcstat_ptracer1I_sd         =   7.6752440152044274E-05
(PID.TID 0000.0001) %MON trcstat_ptracer1I_del2       =   4.0225783539224485E-07
(PID.TID 0000.0001) %MON trcstat_ptracer1J_max        =   5.1854287506389778E-03
(PID.TID 0000.0001) %MON trcstat_ptracer1J_min        =   5.1716585665249713E-08
(PID.TID 0000.0001) %MON trcstat_ptracer1J_mean       =   1.0264541265311116E-05
(PID.TID 0000.0001) %MON trcstat_ptracer1J_sd         =   7.5794487842855373E-05
(PID.TID 0000.0001) %MON trcstat_ptracer1J_del2       =   3.9631122425699448E-07
(PID.TID 0000.0001) %MON trcstat_ptracer1K_max        =   5.1064842447718891E-03
(PID.TID 0000.0001) %MON trcstat_ptracer1K_min        =   5.1773266359760014E-08
(PID.TID 0000.0001) %MON trcstat_ptracer1K_mean       =   1.0300758281229616E-05
(PID.TID 0000.0001) %MON trcstat_ptracer1K_sd         =   7.5878689405433329E-05
(PID.TID 0000.0001) %MON trcstat_ptracer1K_del2       =   3.9505337031271967E-07
(PID.TID 0000.0001) %MON trcstat_ptracer1L_max        =   5.0129664866986369E-03
(PID.TID 0000.0001) %MON trcstat_ptracer1L_min        =   5.1856662621478070E-08
(PID.TID 0000.0001) %MON trcstat_ptracer1L_mean       =   1.0124576413922811E-05
(PID.TID 0000.0001) %MON trcstat_ptracer1L_sd         =   7.4610919862198123E-05
(PID.TID 0000.0001) %MON trcstat_ptracer1L_del2       =   3.8798913785498406E-07
(PID.TID 0000.0001) %MON trcstat_ptracer1M_max        =   4.9309592321218586E-03
(PID.TID 0000.0001) %MON trcstat_ptracer1M_min        =   5.1993866134134549E-08
(PID.TID 0000.0001) %MON trcstat_ptracer1M_mean       =   9.9717536540606609E-06
(PID.TID 0000.0001) %MON trcstat_ptracer1M_sd         =   7.3508911931197983E-05
(PID.TID 0000.0001) %MON trcstat_ptracer1M_del2       =   3.8187605568812889E-07
(PID.TID 0000.0001) %MON trcstat_ptracer1N_max        =   4.8625221794926067E-03
(PID.TID 0000.0001) %MON trcstat_ptracer1N_min        =   5.2200151363408352E-08
(PID.TID 0000.0001) %MON trcstat_ptracer1N_mean       =   9.8438617767855868E-06
(PID.TID 0000.0001) %MON trcstat_ptracer1N_sd         =   7.2585161659486196E-05
(PID.TID 0000.0001) %MON trcstat_ptracer1N_del2       =   3.7678968549980370E-07
(PID.TID 0000.0001) %MON trcstat_ptracer1O_max        =   4.8106678356870762E-03
(PID.TID 0000.0001) %MON trcstat_ptracer1O_min        =   5.2497736574388268E-08
(PID.TID 0000.0001) %MON trcstat_ptracer1O_mean       =   9.7449518151151212E-06
(PID.TID 0000.0001) %MON trcstat_ptracer1O_sd         =   7.1872044719293975E-05
(PID.TID 0000.0001) %MON trcstat_ptracer1O_del2       =   3.7303303721395830E-07
(PID.TID 0000.0001) %MON trcstat_ptracer1P_max        =   4.7980372315601172E-03
(PID.TID 0000.0001) %MON trcstat_ptracer1P_min        =   5.2914070786316874E-08
(PID.TID 0000.0001) %MON trcstat_ptracer1P_mean       =   9.7469522719019997E-06
(PID.TID 0000.0001) %MON trcstat_ptracer1P_sd         =   7.1865350763997902E-05
(PID.TID 0000.0001) %MON trcstat_ptracer1P_del2       =   3.7309153728478977E-07
(PID.TID 0000.0001) %MON trcstat_ptracer1Q_max        =   4.7924597747188808E-03
(PID.TID 0000.0001) %MON trcstat_ptracer1Q_min        =   5.3464066419875327E-08
(PID.TID 0000.0001) %MON trcstat_ptracer1Q_mean       =   9.6864340332283391E-06
(PID.TID 0000.0001) %MON trcstat_ptracer1Q_sd         =   7.1451822907508443E-05
(PID.TID 0000.0001) %MON trcstat_ptracer1Q_del2       =   3.7126415595298670E-07
(PID.TID 0000.0001) %MON trcstat_ptracer1R_max        =   4.7851584753208576E-03
(PID.TID 0000.0001) %MON trcstat_ptracer1R_min        =   5.4186709507014411E-08
(PID.TID 0000.0001) %MON trcstat_ptracer1R_mean       =   9.6516738511998875E-06
(PID.TID 0000.0001) %MON trcstat_ptracer1R_sd         =   7.1199379570539598E-05
(PID.TID 0000.0001) %MON trcstat_ptracer1R_del2       =   3.7004915240586664E-07
(PID.TID 0000.0001) %MON trcstat_ptracer1S_max        =   4.7756035345529772E-03
(PID.TID 0000.0001) %MON trcstat_ptracer1S_min        =   5.5136985639310609E-08
(PID.TID 0000.0001) %MON trcstat_ptracer1S_mean       =   9.6355282820283843E-06
(PID.TID 0000.0001) %MON trcstat_ptracer1S_sd         =   7.1049971492809826E-05
(PID.TID 0000.0001) %MON trcstat_ptracer1S_del2       =   3.6920604174791039E-07
(PID.TID 0000.0001) %MON trcstat_ptracer1T_max        =   4.7631044748839748E-03
(PID.TID 0000.0001) %MON trcstat_ptracer1T_min        =   5.6387963330221128E-08
(PID.TID 0000.0001) %MON trcstat_ptracer1T_mean       =   9.6287618122356496E-06
(PID.TID 0000.0001) %MON trcstat_ptracer1T_sd         =   7.0937926934497449E-05
(PID.TID 0000.0001) %MON trcstat_ptracer1T_del2       =   3.6845378810769200E-07
(PID.TID 0000.0001) %MON trcstat_ptracer1U_max        =   4.7467629527278834E-03
(PID.TID 0000.0001) %MON trcstat_ptracer1U_min        =   5.7673712411537805E-08
(PID.TID 0000.0001) %MON trcstat_ptracer1U_mean       =   9.6249059413693024E-06
(PID.TID 0000.0001) %MON trcstat_ptracer1U_sd         =   7.0825087344980912E-05
(PID.TID 0000.0001) %MON trcstat_ptracer1U_del2       =   3.6764279980608591E-07
(PID.TID 0000.0001) %MON trcstat_ptracer1V_max        =   4.7254128316725295E-03
(PID.TID 0000.0001) %MON trcstat_ptracer1V_min        =   5.7905120246393301E-08
(PID.TID 0000.0001) %MON trcstat_ptracer1V_mean       =   9.6230331965257107E-06
(PID.TID 0000.0001) %MON trcstat_ptracer1V_sd         =   7.0698649526086500E-05
(PID.TID 0000.0001) %MON trcstat_ptracer1V_del2       =   3.6669352718152455E-07
(PID.TID 0000.0001) %MON trcstat_ptracer1W_max        =   4.6975449058112113E-03
(PID.TID 0000.0001) %MON trcstat_ptracer1W_min        =   5.8217073122265716E-08
(PID.TID 0000.0001) %MON trcstat_ptracer1W_mean       =   9.6222120298427921E-06
(PID.TID 0000.0001) %MON trcstat_ptracer1W_sd         =   7.0544619355424431E-05
(PID.TID 0000.0001) %MON trcstat_ptracer1W_del2       =   3.6552391487241203E-07
(PID.TID 0000.0001) %MON trcstat_ptracer1X_max        =   4.6612137863272377E-03
(PID.TID 0000.0001) %MON trcstat_ptracer1X_min        =   5.8640886069395800E-08
(PID.TID 0000.0001) %MON trcstat_ptracer1X_mean       =   9.6220956241401085E-06
(PID.TID 0000.0001) %MON trcstat_ptracer1X_sd         =   7.0350640606910606E-05
(PID.TID 0000.0001) %MON trcstat_ptracer1X_del2       =   3.6403912831398498E-07
(PID.TID 0000.0001) %MON trcstat_ptracer1Y_max        =   4.6139252592316748E-03
(PID.TID 0000.0001) %MON trcstat_ptracer1Y_min        =   5.9222202904497592E-08
(PID.TID 0000.0001) %MON trcstat_ptracer1Y_mean       =   9.6221382289831206E-06
(PID.TID 0000.0001) %MON trcstat_ptracer1Y_sd         =   7.0100339258950383E-05
(PID.TID 0000.0001) %MON trcstat_ptracer1Y_del2       =   3.6213042649903892E-07
(PID.TID 0000.0001) %MON trcstat_ptracer1Z_max        =   4.5525045045113829E-03
(PID.TID 0000.0001) %MON trcstat_ptracer1Z_min        =   6.0028853801977316E-08
(PID.TID 0000.0001) %MON trcstat_ptracer1Z_mean       =   9.6221939219403076E-06
(PID.TID 0000.0001) %MON trcstat_ptracer1Z_sd         =   6.9777620351940654E-05
(PID.TID 0000.0001) %MON trcstat_ptracer1Z_del2       =   3.5968130345140659E-07
(PID.TID 0000.0001) %MON trcstat_ptracer2a_max        =   4.4729499814584565E-03
(PID.TID 0000.0001) %MON trcstat_ptracer2a_min        =   6.1163743776216253E-08
(PID.TID 0000.0001) %MON trcstat_ptracer2a_mean       =   9.6222666657283550E-06
(PID.TID 0000.0001) %MON trcstat_ptracer2a_sd         =   6.9363637719384929E-05
(PID.TID 0000.0001) %MON trcstat_ptracer2a_del2       =   3.5656040311160796E-07
(PID.TID 0000.0001) %MON trcstat_ptracer2b_max        =   4.3702862390549583E-03
(PID.TID 0000.0001) %MON trcstat_ptracer2b_min        =   6.2786355501754705E-08
(PID.TID 0000.0001) %MON trcstat_ptracer2b_mean       =   9.6223615878551256E-06
(PID.TID 0000.0001) %MON trcstat_ptracer2b_sd         =   6.8836103848977733E-05
(PID.TID 0000.0001) %MON trcstat_ptracer2b_del2       =   3.5262079073458773E-07
(PID.TID 0000.0001) %MON trcstat_ptracer2c_max        =   4.2384440743478396E-03
(PID.TID 0000.0001) %MON trcstat_ptracer2c_min        =   6.5149318710726776E-08
(PID.TID 0000.0001) %MON trcstat_ptracer2c_mean       =   9.6224852825002962E-06
(PID.TID 0000.0001) %MON trcstat_ptracer2c_sd         =   6.8169743697829954E-05
(PID.TID 0000.0001) %MON trcstat_ptracer2c_del2       =   3.4771069579482762E-07
(PID.TID 0000.0001) %MON trcstat_ptracer2d_max        =   4.1495625327598561E-03
(PID.TID 0000.0001) %MON trcstat_ptracer2d_min        =   6.8661940884382498E-08
(PID.TID 0000.0001) %MON trcstat_ptracer2d_mean       =   9.6226461932743507E-06
(PID.TID 0000.0001) %MON trcstat_ptracer2d_sd         =   6.7337653581120007E-05
(PID.TID 0000.0001) %MON trcstat_ptracer2d_del2       =   3.4170025992275445E-07
(PID.TID 0000.0001) // =======================================================
(PID.TID 0000.0001) // End MONITOR ptracers field statistics
(PID.TID 0000.0001) // =======================================================
 Computing Diagnostic #    224  TRAC01       Counter:       1   Parms: SMR     MR      
 Computing Diagnostic #    236  TRAC02       Counter:       1   Parms: SMR     MR      
 Computing Diagnostic #    248  TRAC03       Counter:       1   Parms: SMR     MR      
 Computing Diagnostic #    260  TRAC04       Counter:       1   Parms: SMR     MR      
 Computing Diagnostic #    272  TRAC05       Counter:       1   Parms: SMR     MR      
 Computing Diagnostic #    284  TRAC06       Counter:       1   Parms: SMR     MR      
 Computing Diagnostic #    296  TRAC07       Counter:       1   Parms: SMR     MR      
 Computing Diagnostic #    308  TRAC08       Counter:       1   Parms: SMR     MR      
 Computing Diagnostic #    320  TRAC09       Counter:       1   Parms: SMR     MR      
 Computing Diagnostic #    332  TRAC10       Counter:       1   Parms: SMR     MR      
 Computing Diagnostic #    344  TRAC11       Counter:       1   Parms: SMR     MR      
 Computing Diagnostic #    356  TRAC12       Counter:       1   Parms: SMR     MR      
 Computing Diagnostic #    368  TRAC13       Counter:       1   Parms: SMR     MR      
 Computing Diagnostic #    380  TRAC14       Counter:       1   Parms: SMR     MR      
 Computing Diagnostic #    392  TRAC15       Counter:       1   Parms: SMR     MR      
 Computing Diagnostic #    404  TRAC16       Counter:       1   Parms: SMR     MR      
 Computing Diagnostic #    416  TRAC17       Counter:       1   Parms: SMR     MR      
 Computing Diagnostic #    428  TRAC18       Counter:       1   Parms: SMR     MR      
 Computing Diagnostic #    440  TRAC19       Counter:       1   Parms: SMR     MR      
 Computing Diagnostic #    452  TRAC20       Counter:       1   Parms: SMR     MR      
 Computing Diagnostic #    464  TRAC21       Counter:       1   Parms: SMR     MR      
 Computing Diagnostic #    476  TRAC22       Counter:       1   Parms: SMR     MR      
 Computing Diagnostic #    488  TRAC23       Counter:       1   Parms: SMR     MR      
 Computing Diagnostic #    500  TRAC24       Counter:       1   Parms: SMR     MR      
 Computing Diagnostic #    512  TRAC25       Counter:       1   Parms: SMR     MR      
 Computing Diagnostic #    524  TRAC26       Counter:       1   Parms: SMR     MR      
 Computing Diagnostic #    536  TRAC27       Counter:       1   Parms: SMR     MR      
 Computing Diagnostic #    548  TRAC28       Counter:       1   Parms: SMR     MR      
 Computing Diagnostic #    560  TRAC29       Counter:       1   Parms: SMR     MR      
 Computing Diagnostic #    572  TRAC30       Counter:       1   Parms: SMR     MR      
 Computing Diagnostic #    584  TRAC31       Counter:       1   Parms: SMR     MR      
 Computing Diagnostic #    596  TRAC32       Counter:       1   Parms: SMR     MR      
 Computing Diagnostic #    608  TRAC33       Counter:       1   Parms: SMR     MR      
 Computing Diagnostic #    620  TRAC34       Counter:       1   Parms: SMR     MR      
 Computing Diagnostic #    632  TRAC35       Counter:       1   Parms: SMR     MR      
 Computing Diagnostic #    644  TRAC36       Counter:       1   Parms: SMR     MR      
 Computing Diagnostic #    656  TRAC37       Counter:       1   Parms: SMR     MR      
 Computing Diagnostic #    668  TRAC38       Counter:       1   Parms: SMR     MR      
 Computing Diagnostic #    680  TRAC39       Counter:       1   Parms: SMR     MR      
 Computing Diagnostic #    692  TRAC40       Counter:       1   Parms: SMR     MR      
 Computing Diagnostic #    704  TRAC41       Counter:       1   Parms: SMR     MR      
 Computing Diagnostic #    716  TRAC42       Counter:       1   Parms: SMR     MR      
 Computing Diagnostic #    728  TRAC43       Counter:       1   Parms: SMR     MR      
 Computing Diagnostic #    740  TRAC44       Counter:       1   Parms: SMR     MR      
 Computing Diagnostic #    752  TRAC45       Counter:       1   Parms: SMR     MR      
 Computing Diagnostic #    764  TRAC46       Counter:       1   Parms: SMR     MR      
 Computing Diagnostic #    776  TRAC47       Counter:       1   Parms: SMR     MR      
 Computing Diagnostic #    788  TRAC48       Counter:       1   Parms: SMR     MR      
 Computing Diagnostic #    800  TRAC49       Counter:       1   Parms: SMR     MR      
 Computing Diagnostic #    812  TRAC50       Counter:       1   Parms: SMR     MR      
 Computing Diagnostic #    824  TRAC51       Counter:       1   Parms: SMR     MR      
 Computing Diagnostic #    836  TRAC52       Counter:       1   Parms: SMR     MR      
 Computing Diagnostic #    848  TRAC53       Counter:       1   Parms: SMR     MR      
 Computing Diagnostic #    860  TRAC54       Counter:       1   Parms: SMR     MR      
 Computing Diagnostic #    872  TRAC55       Counter:       1   Parms: SMR     MR      
 Computing Diagnostic #    884  TRAC56       Counter:       1   Parms: SMR     MR      
 Computing Diagnostic #    896  TRAC57       Counter:       1   Parms: SMR     MR      
 Computing Diagnostic #    908  TRAC58       Counter:       1   Parms: SMR     MR      
 Computing Diagnostic #    920  TRAC59       Counter:       1   Parms: SMR     MR      
 Computing Diagnostic #    932  TRAC60       Counter:       1   Parms: SMR     MR      
 Computing Diagnostic #    944  TRAC61       Counter:       1   Parms: SMR     MR      
 Computing Diagnostic #    956  TRAC62       Counter:       1   Parms: SMR     MR      
 Computing Diagnostic #    968  TRAC63       Counter:       1   Parms: SMR     MR      
 Computing Diagnostic #    980  TRAC64       Counter:       1   Parms: SMR     MR      
 Computing Diagnostic #    992  TRAC65       Counter:       1   Parms: SMR     MR      
 Computing Diagnostic #   1004  TRAC66       Counter:       1   Parms: SMR     MR      
 Computing Diagnostic #   1016  TRAC67       Counter:       1   Parms: SMR     MR      
 Computing Diagnostic #   1028  TRAC68       Counter:       1   Parms: SMR     MR      
 Computing Diagnostic #   1040  TRAC69       Counter:       1   Parms: SMR     MR      
 Computing Diagnostic #   1052  TRAC70       Counter:       1   Parms: SMR     MR      
 Computing Diagnostic #   1064  TRAC71       Counter:       1   Parms: SMR     MR      
 Computing Diagnostic #   1076  TRAC72       Counter:       1   Parms: SMR     MR      
 Computing Diagnostic #   1088  TRAC73       Counter:       1   Parms: SMR     MR      
 Computing Diagnostic #   1100  TRAC74       Counter:       1   Parms: SMR     MR      
 Computing Diagnostic #   1112  TRAC75       Counter:       1   Parms: SMR     MR      
 Computing Diagnostic #   1124  TRAC76       Counter:       1   Parms: SMR     MR      
 Computing Diagnostic #   1136  TRAC77       Counter:       1   Parms: SMR     MR      
 Computing Diagnostic #   1148  TRAC78       Counter:       1   Parms: SMR     MR      
 Computing Diagnostic #   1160  TRAC79       Counter:       1   Parms: SMR     MR      
 Computing Diagnostic #   1172  TRAC80       Counter:       1   Parms: SMR     MR      
 Computing Diagnostic #   1184  TRAC81       Counter:       1   Parms: SMR     MR      
 Computing Diagnostic #   1196  TRAC82       Counter:       1   Parms: SMR     MR      
 Computing Diagnostic #   1208  TRAC83       Counter:       1   Parms: SMR     MR      
 Computing Diagnostic #   1220  TRAC84       Counter:       1   Parms: SMR     MR      
 Computing Diagnostic #   1232  TRAC85       Counter:       1   Parms: SMR     MR      
 Computing Diagnostic #   1244  TRAC86       Counter:       1   Parms: SMR     MR      
 Computing Diagnostic #   1256  TRAC87       Counter:       1   Parms: SMR     MR      
 Computing Diagnostic #   1268  TRAC88       Counter:       1   Parms: SMR     MR      
 Computing Diagnostic #   1280  TRAC89       Counter:       1   Parms: SMR     MR      
 Computing Diagnostic #   1292  TRAC90       Counter:       1   Parms: SMR     MR      
 Computing Diagnostic #   1304  TRAC91       Counter:       1   Parms: SMR     MR      
 Computing Diagnostic #   1316  TRAC92       Counter:       1   Parms: SMR     MR      
 Computing Diagnostic #   1328  TRAC93       Counter:       1   Parms: SMR     MR      
 Computing Diagnostic #   1340  TRAC94       Counter:       1   Parms: SMR     MR      
 Computing Diagnostic #   1352  TRAC95       Counter:       1   Parms: SMR     MR      
 Computing Diagnostic #   1364  TRAC96       Counter:       1   Parms: SMR     MR      
 Computing Diagnostic #   1376  TRAC97       Counter:       1   Parms: SMR     MR      
 Computing Diagnostic #   1388  TRAC98       Counter:       1   Parms: SMR     MR      
 Computing Diagnostic #   1400  TRAC99       Counter:       1   Parms: SMR     MR      
 Computing Diagnostic #   1412  TRAC0a       Counter:       1   Parms: SMR     MR      
 Computing Diagnostic #   1424  TRAC0b       Counter:       1   Parms: SMR     MR      
 Computing Diagnostic #   1436  TRAC0c       Counter:       1   Parms: SMR     MR      
 Computing Diagnostic #   1448  TRAC0d       Counter:       1   Parms: SMR     MR      
 Computing Diagnostic #   1460  TRAC0e       Counter:       1   Parms: SMR     MR      
 Computing Diagnostic #   1472  TRAC0f       Counter:       1   Parms: SMR     MR      
 Computing Diagnostic #   1484  TRAC0g       Counter:       1   Parms: SMR     MR      
 Computing Diagnostic #   1496  TRAC0h       Counter:       1   Parms: SMR     MR      
 Computing Diagnostic #   1508  TRAC0i       Counter:       1   Parms: SMR     MR      
 Computing Diagnostic #   1520  TRAC0j       Counter:       1   Parms: SMR     MR      
 Computing Diagnostic #   1532  TRAC0k       Counter:       1   Parms: SMR     MR      
 Computing Diagnostic #   1544  TRAC0l       Counter:       1   Parms: SMR     MR      
 Computing Diagnostic #   1556  TRAC0m       Counter:       1   Parms: SMR     MR      
 Computing Diagnostic #   1568  TRAC0n       Counter:       1   Parms: SMR     MR      
 Computing Diagnostic #   1580  TRAC0o       Counter:       1   Parms: SMR     MR      
 Computing Diagnostic #   1592  TRAC0p       Counter:       1   Parms: SMR     MR      
 Computing Diagnostic #   1604  TRAC0q       Counter:       1   Parms: SMR     MR      
 Computing Diagnostic #   1616  TRAC0r       Counter:       1   Parms: SMR     MR      
 Computing Diagnostic #   1628  TRAC0s       Counter:       1   Parms: SMR     MR      
 Computing Diagnostic #   1640  TRAC0t       Counter:       1   Parms: SMR     MR      
 Computing Diagnostic #   1652  TRAC0u       Counter:       1   Parms: SMR     MR      
 Computing Diagnostic #   1664  TRAC0v       Counter:       1   Parms: SMR     MR      
 Computing Diagnostic #   1676  TRAC0w       Counter:       1   Parms: SMR     MR      
 Computing Diagnostic #   1688  TRAC0x       Counter:       1   Parms: SMR     MR      
 Computing Diagnostic #   1700  TRAC0y       Counter:       1   Parms: SMR     MR      
 Computing Diagnostic #   1712  TRAC0z       Counter:       1   Parms: SMR     MR      
 Computing Diagnostic #   1724  TRAC0A       Counter:       1   Parms: SMR     MR      
 Computing Diagnostic #   1736  TRAC0B       Counter:       1   Parms: SMR     MR      
 Computing Diagnostic #   1748  TRAC0C       Counter:       1   Parms: SMR     MR      
 Computing Diagnostic #   1760  TRAC0D       Counter:       1   Parms: SMR     MR      
 Computing Diagnostic #   1772  TRAC0E       Counter:       1   Parms: SMR     MR      
 Computing Diagnostic #   1784  TRAC0F       Counter:       1   Parms: SMR     MR      
 Computing Diagnostic #   1796  TRAC0G       Counter:       1   Parms: SMR     MR      
 Computing Diagnostic #   1808  TRAC0H       Counter:       1   Parms: SMR     MR      
 Computing Diagnostic #   1820  TRAC0I       Counter:       1   Parms: SMR     MR      
 Computing Diagnostic #   1832  TRAC0J       Counter:       1   Parms: SMR     MR      
 Computing Diagnostic #   1844  TRAC0K       Counter:       1   Parms: SMR     MR      
 Computing Diagnostic #   1856  TRAC0L       Counter:       1   Parms: SMR     MR      
 Computing Diagnostic #   1868  TRAC0M       Counter:       1   Parms: SMR     MR      
 Computing Diagnostic #   1880  TRAC0N       Counter:       1   Parms: SMR     MR      
 Computing Diagnostic #   1892  TRAC0O       Counter:       1   Parms: SMR     MR      
 Computing Diagnostic #   1904  TRAC0P       Counter:       1   Parms: SMR     MR      
 Computing Diagnostic #   1916  TRAC0Q       Counter:       1   Parms: SMR     MR      
 Computing Diagnostic #   1928  TRAC0R       Counter:       1   Parms: SMR     MR      
 Computing Diagnostic #   1940  TRAC0S       Counter:       1   Parms: SMR     MR      
 Computing Diagnostic #   1952  TRAC0T       Counter:       1   Parms: SMR     MR      
 Computing Diagnostic #   1964  TRAC0U       Counter:       1   Parms: SMR     MR      
 Computing Diagnostic #   1976  TRAC0V       Counter:       1   Parms: SMR     MR      
 Computing Diagnostic #   1988  TRAC0W       Counter:       1   Parms: SMR     MR      
 Computing Diagnostic #   2000  TRAC0X       Counter:       1   Parms: SMR     MR      
 Computing Diagnostic #   2012  TRAC0Y       Counter:       1   Parms: SMR     MR      
 Computing Diagnostic #   2024  TRAC0Z       Counter:       1   Parms: SMR     MR      
 Computing Diagnostic #   2036  TRAC1a       Counter:       1   Parms: SMR     MR      
 Computing Diagnostic #   2048  TRAC1b       Counter:       1   Parms: SMR     MR      
 Computing Diagnostic #   2060  TRAC1c       Counter:       1   Parms: SMR     MR      
 Computing Diagnostic #   2072  TRAC1d       Counter:       1   Parms: SMR     MR      
 Computing Diagnostic #   2084  TRAC1e       Counter:       1   Parms: SMR     MR      
 Computing Diagnostic #   2096  TRAC1f       Counter:       1   Parms: SMR     MR      
 Computing Diagnostic #   2108  TRAC1g       Counter:       1   Parms: SMR     MR      
 Computing Diagnostic #   2120  TRAC1h       Counter:       1   Parms: SMR     MR      
 Computing Diagnostic #   2132  TRAC1i       Counter:       1   Parms: SMR     MR      
 Computing Diagnostic #   2144  TRAC1j       Counter:       1   Parms: SMR     MR      
 Computing Diagnostic #   2156  TRAC1k       Counter:       1   Parms: SMR     MR      
 Computing Diagnostic #   2168  TRAC1l       Counter:       1   Parms: SMR     MR      
 Computing Diagnostic #   2180  TRAC1m       Counter:       1   Parms: SMR     MR      
 Computing Diagnostic #   2192  TRAC1n       Counter:       1   Parms: SMR     MR      
 Computing Diagnostic #   2204  TRAC1o       Counter:       1   Parms: SMR     MR      
 Computing Diagnostic #   2216  TRAC1p       Counter:       1   Parms: SMR     MR      
 Computing Diagnostic #   2228  TRAC1q       Counter:       1   Parms: SMR     MR      
 Computing Diagnostic #   2240  TRAC1r       Counter:       1   Parms: SMR     MR      
 Computing Diagnostic #   2252  TRAC1s       Counter:       1   Parms: SMR     MR      
 Computing Diagnostic #   2264  TRAC1t       Counter:       1   Parms: SMR     MR      
 Computing Diagnostic #   2276  TRAC1u       Counter:       1   Parms: SMR     MR      
 Computing Diagnostic #   2288  TRAC1v       Counter:       1   Parms: SMR     MR      
 Computing Diagnostic #   2300  TRAC1w       Counter:       1   Parms: SMR     MR      
 Computing Diagnostic #   2312  TRAC1x       Counter:       1   Parms: SMR     MR      
 Computing Diagnostic #   2324  TRAC1y       Counter:       1   Parms: SMR     MR      
 Computing Diagnostic #   2336  TRAC1z       Counter:       1   Parms: SMR     MR      
 Computing Diagnostic #   2348  TRAC1A       Counter:       1   Parms: SMR     MR      
 Computing Diagnostic #   2360  TRAC1B       Counter:       1   Parms: SMR     MR      
 Computing Diagnostic #   2372  TRAC1C       Counter:       1   Parms: SMR     MR      
 Computing Diagnostic #   2384  TRAC1D       Counter:       1   Parms: SMR     MR      
 Computing Diagnostic #   2396  TRAC1E       Counter:       1   Parms: SMR     MR      
 Computing Diagnostic #   2408  TRAC1F       Counter:       1   Parms: SMR     MR      
 Computing Diagnostic #   2420  TRAC1G       Counter:       1   Parms: SMR     MR      
 Computing Diagnostic #   2432  TRAC1H       Counter:       1   Parms: SMR     MR      
 Computing Diagnostic #   2444  TRAC1I       Counter:       1   Parms: SMR     MR      
 Computing Diagnostic #   2456  TRAC1J       Counter:       1   Parms: SMR     MR      
 Computing Diagnostic #   2468  TRAC1K       Counter:       1   Parms: SMR     MR      
 Computing Diagnostic #   2480  TRAC1L       Counter:       1   Parms: SMR     MR      
 Computing Diagnostic #   2492  TRAC1M       Counter:       1   Parms: SMR     MR      
 Computing Diagnostic #   2504  TRAC1N       Counter:       1   Parms: SMR     MR      
 Computing Diagnostic #   2516  TRAC1O       Counter:       1   Parms: SMR     MR      
 Computing Diagnostic #   2528  TRAC1P       Counter:       1   Parms: SMR     MR      
 Computing Diagnostic #   2540  TRAC1Q       Counter:       1   Parms: SMR     MR      
 Computing Diagnostic #   2552  TRAC1R       Counter:       1   Parms: SMR     MR      
 Computing Diagnostic #   2564  TRAC1S       Counter:       1   Parms: SMR     MR      
 Computing Diagnostic #   2576  TRAC1T       Counter:       1   Parms: SMR     MR      
 Computing Diagnostic #   2588  TRAC1U       Counter:       1   Parms: SMR     MR      
 Computing Diagnostic #   2600  TRAC1V       Counter:       1   Parms: SMR     MR      
 Computing Diagnostic #   2612  TRAC1W       Counter:       1   Parms: SMR     MR      
 Computing Diagnostic #   2624  TRAC1X       Counter:       1   Parms: SMR     MR      
 Computing Diagnostic #   2636  TRAC1Y       Counter:       1   Parms: SMR     MR      
 Computing Diagnostic #   2648  TRAC1Z       Counter:       1   Parms: SMR     MR      
 Computing Diagnostic #   2660  TRAC2a       Counter:       1   Parms: SMR     MR      
 Computing Diagnostic #   2672  TRAC2b       Counter:       1   Parms: SMR     MR      
 Computing Diagnostic #   2684  TRAC2c       Counter:       1   Parms: SMR     MR      
 Computing Diagnostic #   2696  TRAC2d       Counter:       1   Parms: SMR     MR      
(PID.TID 0000.0001) // =======================================================
(PID.TID 0000.0001) // Begin MONITOR EXF statistics
(PID.TID 0000.0001) // =======================================================
(PID.TID 0000.0001) %MON exf_tsnumber                 =               5644802
(PID.TID 0000.0001) %MON exf_time_sec                 =   2.4385544640000000E+11
(PID.TID 0000.0001) %MON exf_ustress_max              =   0.0000000000000000E+00
(PID.TID 0000.0001) %MON exf_ustress_min              =   0.0000000000000000E+00
(PID.TID 0000.0001) %MON exf_ustress_mean             =   0.0000000000000000E+00
(PID.TID 0000.0001) %MON exf_ustress_sd               =   0.0000000000000000E+00
(PID.TID 0000.0001) %MON exf_ustress_del2             =   0.0000000000000000E+00
(PID.TID 0000.0001) %MON exf_vstress_max              =   0.0000000000000000E+00
(PID.TID 0000.0001) %MON exf_vstress_min              =   0.0000000000000000E+00
(PID.TID 0000.0001) %MON exf_vstress_mean             =   0.0000000000000000E+00
(PID.TID 0000.0001) %MON exf_vstress_sd               =   0.0000000000000000E+00
(PID.TID 0000.0001) %MON exf_vstress_del2             =   0.0000000000000000E+00
(PID.TID 0000.0001) %MON exf_hflux_max                =   0.0000000000000000E+00
(PID.TID 0000.0001) %MON exf_hflux_min                =   0.0000000000000000E+00
(PID.TID 0000.0001) %MON exf_hflux_mean               =   0.0000000000000000E+00
(PID.TID 0000.0001) %MON exf_hflux_sd                 =   0.0000000000000000E+00
(PID.TID 0000.0001) %MON exf_hflux_del2               =   0.0000000000000000E+00
(PID.TID 0000.0001) %MON exf_sflux_max                =   0.0000000000000000E+00
(PID.TID 0000.0001) %MON exf_sflux_min                =   0.0000000000000000E+00
(PID.TID 0000.0001) %MON exf_sflux_mean               =   0.0000000000000000E+00
(PID.TID 0000.0001) %MON exf_sflux_sd                 =   0.0000000000000000E+00
(PID.TID 0000.0001) %MON exf_sflux_del2               =   0.0000000000000000E+00
(PID.TID 0000.0001) %MON exf_uwind_max                =   0.0000000000000000E+00
(PID.TID 0000.0001) %MON exf_uwind_min                =   0.0000000000000000E+00
(PID.TID 0000.0001) %MON exf_uwind_mean               =   0.0000000000000000E+00
(PID.TID 0000.0001) %MON exf_uwind_sd                 =   0.0000000000000000E+00
(PID.TID 0000.0001) %MON exf_uwind_del2               =   0.0000000000000000E+00
(PID.TID 0000.0001) %MON exf_vwind_max                =   0.0000000000000000E+00
(PID.TID 0000.0001) %MON exf_vwind_min                =   0.0000000000000000E+00
(PID.TID 0000.0001) %MON exf_vwind_mean               =   0.0000000000000000E+00
(PID.TID 0000.0001) %MON exf_vwind_sd                 =   0.0000000000000000E+00
(PID.TID 0000.0001) %MON exf_vwind_del2               =   0.0000000000000000E+00
(PID.TID 0000.0001) %MON exf_wspeed_max               =   0.0000000000000000E+00
(PID.TID 0000.0001) %MON exf_wspeed_min               =   0.0000000000000000E+00
(PID.TID 0000.0001) %MON exf_wspeed_mean              =   0.0000000000000000E+00
(PID.TID 0000.0001) %MON exf_wspeed_sd                =   0.0000000000000000E+00
(PID.TID 0000.0001) %MON exf_wspeed_del2              =   0.0000000000000000E+00
(PID.TID 0000.0001) %MON exf_evap_max                 =   0.0000000000000000E+00
(PID.TID 0000.0001) %MON exf_evap_min                 =   0.0000000000000000E+00
(PID.TID 0000.0001) %MON exf_evap_mean                =   0.0000000000000000E+00
(PID.TID 0000.0001) %MON exf_evap_sd                  =   0.0000000000000000E+00
(PID.TID 0000.0001) %MON exf_evap_del2                =   0.0000000000000000E+00
(PID.TID 0000.0001) // =======================================================
(PID.TID 0000.0001) // End MONITOR EXF statistics
(PID.TID 0000.0001) // =======================================================
 cg2d: Sum(rhs),rhsMax =  -6.04723467745316E-07  7.55204046322845E+00
(PID.TID 0000.0001)      cg2d_init_res =   1.61532326759945E-02
(PID.TID 0000.0001)      cg2d_iters(min,last) =      -1      22
(PID.TID 0000.0001)      cg2d_last_res =   7.02252539214965E-14
(PID.TID 0000.0001) totgC   -5.3370850100892264E-04  -4.5461250720826522E-22
(PID.TID 0000.0001) totgN   -5.0593403703710904E-05  -4.3095423929849343E-23
(PID.TID 0000.0001) totgP    0.0000000000000000E+00   0.0000000000000000E+00
(PID.TID 0000.0001) totgFe  -3.7299314161043765E+05  -3.1771528270293324E-13
(PID.TID 0000.0001) totgSi   0.0000000000000000E+00   0.0000000000000000E+00
 fe   0.0000000000000000     
 fe   0.0000000000000000     
(PID.TID 0000.0001) totgC    1.7469626990851417E-04   1.4880615375791756E-22
(PID.TID 0000.0001) totgN    8.9744994382107146E-05   7.6444719970385703E-23
(PID.TID 0000.0001) totgP    0.0000000000000000E+00   0.0000000000000000E+00
(PID.TID 0000.0001) totgFe  -3.7300461854923214E+05  -3.1772505875092679E-13
(PID.TID 0000.0001) totgSi   0.0000000000000000E+00   0.0000000000000000E+00
 fe   0.0000000000000000     
 fe   0.0000000000000000     
(PID.TID 0000.0001) // =======================================================
(PID.TID 0000.0001) // Begin MONITOR dynamic field statistics
(PID.TID 0000.0001) // =======================================================
(PID.TID 0000.0001) %MON time_tsnumber                =               5644803
(PID.TID 0000.0001) %MON time_secondsf                =   2.4385548960000000E+11
(PID.TID 0000.0001) %MON dynstat_eta_max              =   9.3627511411143571E-01
(PID.TID 0000.0001) %MON dynstat_eta_min              =  -1.7303081983849677E+00
(PID.TID 0000.0001) %MON dynstat_eta_mean             =   1.6246248406942184E-10
(PID.TID 0000.0001) %MON dynstat_eta_sd               =   6.5166423101284721E-01
(PID.TID 0000.0001) %MON dynstat_eta_del2             =   9.2978030837644120E-04
(PID.TID 0000.0001) %MON dynstat_uvel_max             =   1.5527053826383980E-01
(PID.TID 0000.0001) %MON dynstat_uvel_min             =  -1.8458253844747516E-01
(PID.TID 0000.0001) %MON dynstat_uvel_mean            =   2.9497278082226516E-03
(PID.TID 0000.0001) %MON dynstat_uvel_sd              =   1.3886039880533611E-02
(PID.TID 0000.0001) %MON dynstat_uvel_del2            =   3.8121351024631769E-05
(PID.TID 0000.0001) %MON dynstat_vvel_max             =   1.1192165236508403E-01
(PID.TID 0000.0001) %MON dynstat_vvel_min             =  -1.5050999023495387E-01
(PID.TID 0000.0001) %MON dynstat_vvel_mean            =  -1.9057176606634979E-04
(PID.TID 0000.0001) %MON dynstat_vvel_sd              =   6.3535592977871109E-03
(PID.TID 0000.0001) %MON dynstat_vvel_del2            =   2.6604415547363919E-05
(PID.TID 0000.0001) %MON dynstat_wvel_max             =   4.3069881910660924E-05
(PID.TID 0000.0001) %MON dynstat_wvel_min             =  -6.4933649181608870E-05
(PID.TID 0000.0001) %MON dynstat_wvel_mean            =  -2.1115974767071877E-22
(PID.TID 0000.0001) %MON dynstat_wvel_sd              =   1.9024936037943132E-06
(PID.TID 0000.0001) %MON dynstat_wvel_del2            =   1.3090179011922919E-08
(PID.TID 0000.0001) %MON dynstat_theta_max            =   2.9958612940492877E+01
(PID.TID 0000.0001) %MON dynstat_theta_min            =  -2.1380939415309035E+00
(PID.TID 0000.0001) %MON dynstat_theta_mean           =   3.7552531475465143E+00
(PID.TID 0000.0001) %MON dynstat_theta_sd             =   5.1498964516694512E+00
(PID.TID 0000.0001) %MON dynstat_theta_del2           =   2.2493972621527810E-03
(PID.TID 0000.0001) %MON dynstat_salt_max             =   3.7553303036339692E+01
(PID.TID 0000.0001) %MON dynstat_salt_min             =   3.1355025863735388E+01
(PID.TID 0000.0001) %MON dynstat_salt_mean            =   3.4543283510303489E+01
(PID.TID 0000.0001) %MON dynstat_salt_sd              =   3.5868211106621217E-01
(PID.TID 0000.0001) %MON dynstat_salt_del2            =   3.8170524704096497E-04
(PID.TID 0000.0001) %MON forcing_qnet_max             =   4.5157683105468749E+02
(PID.TID 0000.0001) %MON forcing_qnet_min             =  -2.1235058186848960E+02
(PID.TID 0000.0001) %MON forcing_qnet_mean            =  -1.7624071088847383E+01
(PID.TID 0000.0001) %MON forcing_qnet_sd              =   1.1579672925848007E+02
(PID.TID 0000.0001) %MON forcing_qnet_del2            =   2.7323208045697345E-01
(PID.TID 0000.0001) %MON forcing_qsw_max              =   0.0000000000000000E+00
(PID.TID 0000.0001) %MON forcing_qsw_min              =   0.0000000000000000E+00
(PID.TID 0000.0001) %MON forcing_qsw_mean             =   0.0000000000000000E+00
(PID.TID 0000.0001) %MON forcing_qsw_sd               =   0.0000000000000000E+00
(PID.TID 0000.0001) %MON forcing_qsw_del2             =   0.0000000000000000E+00
(PID.TID 0000.0001) %MON forcing_empmr_max            =   6.9206222512718796E-05
(PID.TID 0000.0001) %MON forcing_empmr_min            =  -1.5544422772961752E-04
(PID.TID 0000.0001) %MON forcing_empmr_mean           =   1.2460352661810301E-14
(PID.TID 0000.0001) %MON forcing_empmr_sd             =   2.4700019777611149E-05
(PID.TID 0000.0001) %MON forcing_empmr_del2           =   1.1591736879228609E-07
(PID.TID 0000.0001) %MON forcing_fu_max               =   2.6907762686411540E-01
(PID.TID 0000.0001) %MON forcing_fu_min               =  -1.5713627139727276E-01
(PID.TID 0000.0001) %MON forcing_fu_mean              =   1.7813586480809756E-02
(PID.TID 0000.0001) %MON forcing_fu_sd                =   8.9604501838055614E-02
(PID.TID 0000.0001) %MON forcing_fu_del2              =   2.4838319211937843E-04
(PID.TID 0000.0001) %MON forcing_fv_max               =   1.9811773399511973E-01
(PID.TID 0000.0001) %MON forcing_fv_min               =  -1.5963796973228456E-01
(PID.TID 0000.0001) %MON forcing_fv_mean              =  -6.4134326874516071E-03
(PID.TID 0000.0001) %MON forcing_fv_sd                =   4.4374188740912861E-02
(PID.TID 0000.0001) %MON forcing_fv_del2              =   1.7989439238480173E-04
(PID.TID 0000.0001) %MON advcfl_uvel_max              =   4.0096976349648032E-02
(PID.TID 0000.0001) %MON advcfl_vvel_max              =   2.0794081573418818E-02
(PID.TID 0000.0001) %MON advcfl_wvel_max              =   1.3125757740578838E-02
(PID.TID 0000.0001) %MON advcfl_W_hf_max              =   1.5469643051396486E-02
(PID.TID 0000.0001) %MON pe_b_mean                    =   5.8619724244049639E-04
(PID.TID 0000.0001) %MON ke_max                       =   1.7866696361139592E-02
(PID.TID 0000.0001) %MON ke_mean                      =   1.1145686354722776E-04
(PID.TID 0000.0001) %MON ke_vol                       =   1.1739855207380157E+18
(PID.TID 0000.0001) %MON vort_r_min                   =  -5.5656497615471459E-07
(PID.TID 0000.0001) %MON vort_r_max                   =   6.2144325835222531E-07
(PID.TID 0000.0001) %MON vort_a_mean                  =  -2.5798915502264611E-05
(PID.TID 0000.0001) %MON vort_a_sd                    =   7.3558772971964243E-05
(PID.TID 0000.0001) %MON vort_p_mean                  =  -3.0020960747216264E-05
(PID.TID 0000.0001) %MON vort_p_sd                    =   9.8090576983568892E-05
(PID.TID 0000.0001) %MON surfExpan_theta_mean         =  -2.4900710895047899E-07
(PID.TID 0000.0001) %MON surfExpan_salt_mean          =   2.6665901662146824E-08
(PID.TID 0000.0001) // =======================================================
(PID.TID 0000.0001) // End MONITOR dynamic field statistics
(PID.TID 0000.0001) // =======================================================
(PID.TID 0000.0001) // =======================================================
(PID.TID 0000.0001) // Begin MONITOR ptracer field statistics
(PID.TID 0000.0001) // =======================================================
(PID.TID 0000.0001) %MON trcstat_ptracer01_max        =   2.3885189346716652E+03
(PID.TID 0000.0001) %MON trcstat_ptracer01_min        =   1.7787260873394339E+03
(PID.TID 0000.0001) %MON trcstat_ptracer01_mean       =   2.2509346074743826E+03
(PID.TID 0000.0001) %MON trcstat_ptracer01_sd         =   9.3586816238042445E+01
(PID.TID 0000.0001) %MON trcstat_ptracer01_del2       =   4.1852774313517534E-02
(PID.TID 0000.0001) %MON trcstat_ptracer02_max        =   2.8985693071405666E-02
(PID.TID 0000.0001) %MON trcstat_ptracer02_min        =   5.9864268995405835E-08
(PID.TID 0000.0001) %MON trcstat_ptracer02_mean       =   2.6144338741705003E-04
(PID.TID 0000.0001) %MON trcstat_ptracer02_sd         =   8.7226918723105255E-04
(PID.TID 0000.0001) %MON trcstat_ptracer02_del2       =   2.1916494567047278E-06
(PID.TID 0000.0001) %MON trcstat_ptracer03_max        =   1.5598910643554220E+00
(PID.TID 0000.0001) %MON trcstat_ptracer03_min        =   1.1922727556350732E-05
(PID.TID 0000.0001) %MON trcstat_ptracer03_mean       =   2.2748728670644817E-02
(PID.TID 0000.0001) %MON trcstat_ptracer03_sd         =   7.0846835319236717E-02
(PID.TID 0000.0001) %MON trcstat_ptracer03_del2       =   1.4460443227008675E-04
(PID.TID 0000.0001) %MON trcstat_ptracer04_max        =   4.6619230981435443E+01
(PID.TID 0000.0001) %MON trcstat_ptracer04_min        =   1.8338075066170613E-02
(PID.TID 0000.0001) %MON trcstat_ptracer04_mean       =   3.0987542633706287E+01
(PID.TID 0000.0001) %MON trcstat_ptracer04_sd         =   9.0298817336485655E+00
(PID.TID 0000.0001) %MON trcstat_ptracer04_del2       =   4.6838882088700677E-03
(PID.TID 0000.0001) %MON trcstat_ptracer05_max        =   0.0000000000000000E+00
(PID.TID 0000.0001) %MON trcstat_ptracer05_min        =   0.0000000000000000E+00
(PID.TID 0000.0001) %MON trcstat_ptracer05_mean       =   0.0000000000000000E+00
(PID.TID 0000.0001) %MON trcstat_ptracer05_sd         =   0.0000000000000000E+00
(PID.TID 0000.0001) %MON trcstat_ptracer05_del2       =   0.0000000000000000E+00
(PID.TID 0000.0001) %MON trcstat_ptracer06_max        =   0.0000000000000000E+00
(PID.TID 0000.0001) %MON trcstat_ptracer06_min        =   0.0000000000000000E+00
(PID.TID 0000.0001) %MON trcstat_ptracer06_mean       =   0.0000000000000000E+00
(PID.TID 0000.0001) %MON trcstat_ptracer06_sd         =   0.0000000000000000E+00
(PID.TID 0000.0001) %MON trcstat_ptracer06_del2       =   0.0000000000000000E+00
(PID.TID 0000.0001) %MON trcstat_ptracer07_max        =   1.0529702556174182E-03
(PID.TID 0000.0001) %MON trcstat_ptracer07_min        =   2.2413574725481603E-04
(PID.TID 0000.0001) %MON trcstat_ptracer07_mean       =   5.3063897256607829E-04
(PID.TID 0000.0001) %MON trcstat_ptracer07_sd         =   1.0678781222173345E-04
(PID.TID 0000.0001) %MON trcstat_ptracer07_del2       =   8.2808810478567603E-08
(PID.TID 0000.0001) %MON trcstat_ptracer08_max        =   1.2236426338549563E+01
(PID.TID 0000.0001) %MON trcstat_ptracer08_min        =  -3.7632773253673231E-04
(PID.TID 0000.0001) %MON trcstat_ptracer08_mean       =   5.3020167427036476E-02
(PID.TID 0000.0001) %MON trcstat_ptracer08_sd         =   2.7944436629161501E-01
(PID.TID 0000.0001) %MON trcstat_ptracer08_del2       =   9.5195988600823179E-04
(PID.TID 0000.0001) %MON trcstat_ptracer09_max        =   1.8470102059330717E+00
(PID.TID 0000.0001) %MON trcstat_ptracer09_min        =  -5.6803550522483149E-05
(PID.TID 0000.0001) %MON trcstat_ptracer09_mean       =   8.0030407455104480E-03
(PID.TID 0000.0001) %MON trcstat_ptracer09_sd         =   4.2180243831495517E-02
(PID.TID 0000.0001) %MON trcstat_ptracer09_del2       =   1.4369203062659846E-04
(PID.TID 0000.0001) %MON trcstat_ptracer10_max        =   0.0000000000000000E+00
(PID.TID 0000.0001) %MON trcstat_ptracer10_min        =   0.0000000000000000E+00
(PID.TID 0000.0001) %MON trcstat_ptracer10_mean       =   0.0000000000000000E+00
(PID.TID 0000.0001) %MON trcstat_ptracer10_sd         =   0.0000000000000000E+00
(PID.TID 0000.0001) %MON trcstat_ptracer10_del2       =   0.0000000000000000E+00
(PID.TID 0000.0001) %MON trcstat_ptracer11_max        =   2.8857085380669942E-04
(PID.TID 0000.0001) %MON trcstat_ptracer11_min        =  -8.8763521713676652E-09
(PID.TID 0000.0001) %MON trcstat_ptracer11_mean       =   1.2503824774358840E-06
(PID.TID 0000.0001) %MON trcstat_ptracer11_sd         =   6.5902559143229984E-06
(PID.TID 0000.0001) %MON trcstat_ptracer11_del2       =   2.2451401689347688E-08
(PID.TID 0000.0001) %MON trcstat_ptracer12_max        =   7.6492050894989330E+00
(PID.TID 0000.0001) %MON trcstat_ptracer12_min        =   3.8023447643932335E-06
(PID.TID 0000.0001) %MON trcstat_ptracer12_mean       =   5.0656458914907054E-02
(PID.TID 0000.0001) %MON trcstat_ptracer12_sd         =   1.3335102876246741E-01
(PID.TID 0000.0001) %MON trcstat_ptracer12_del2       =   4.2603503501445608E-04
(PID.TID 0000.0001) %MON trcstat_ptracer13_max        =   1.1545855215970551E+00
(PID.TID 0000.0001) %MON trcstat_ptracer13_min        =   5.7415578354364168E-07
(PID.TID 0000.0001) %MON trcstat_ptracer13_mean       =   7.6461953775973611E-03
(PID.TID 0000.0001) %MON trcstat_ptracer13_sd         =   2.0128332153444790E-02
(PID.TID 0000.0001) %MON trcstat_ptracer13_del2       =   6.4307041449636115E-05
(PID.TID 0000.0001) %MON trcstat_ptracer14_max        =   0.0000000000000000E+00
(PID.TID 0000.0001) %MON trcstat_ptracer14_min        =   0.0000000000000000E+00
(PID.TID 0000.0001) %MON trcstat_ptracer14_mean       =   0.0000000000000000E+00
(PID.TID 0000.0001) %MON trcstat_ptracer14_sd         =   0.0000000000000000E+00
(PID.TID 0000.0001) %MON trcstat_ptracer14_del2       =   0.0000000000000000E+00
(PID.TID 0000.0001) %MON trcstat_ptracer15_max        =   0.0000000000000000E+00
(PID.TID 0000.0001) %MON trcstat_ptracer15_min        =   0.0000000000000000E+00
(PID.TID 0000.0001) %MON trcstat_ptracer15_mean       =   0.0000000000000000E+00
(PID.TID 0000.0001) %MON trcstat_ptracer15_sd         =   0.0000000000000000E+00
(PID.TID 0000.0001) %MON trcstat_ptracer15_del2       =   0.0000000000000000E+00
(PID.TID 0000.0001) %MON trcstat_ptracer16_max        =   1.8038444284096427E-04
(PID.TID 0000.0001) %MON trcstat_ptracer16_min        =   8.9004303759088137E-11
(PID.TID 0000.0001) %MON trcstat_ptracer16_mean       =   1.1946429126735595E-06
(PID.TID 0000.0001) %MON trcstat_ptracer16_sd         =   3.1448482040585455E-06
(PID.TID 0000.0001) %MON trcstat_ptracer16_del2       =   1.0047735827715793E-08
(PID.TID 0000.0001) %MON trcstat_ptracer17_max        =   0.0000000000000000E+00
(PID.TID 0000.0001) %MON trcstat_ptracer17_min        =   0.0000000000000000E+00
(PID.TID 0000.0001) %MON trcstat_ptracer17_mean       =   0.0000000000000000E+00
(PID.TID 0000.0001) %MON trcstat_ptracer17_sd         =   0.0000000000000000E+00
(PID.TID 0000.0001) %MON trcstat_ptracer17_del2       =   0.0000000000000000E+00
(PID.TID 0000.0001) %MON trcstat_ptracer18_max        =   4.1257041978657403E-03
(PID.TID 0000.0001) %MON trcstat_ptracer18_min        =  -6.5721204637149263E-09
(PID.TID 0000.0001) %MON trcstat_ptracer18_mean       =   7.4620307050209613E-06
(PID.TID 0000.0001) %MON trcstat_ptracer18_sd         =   5.3979361409524431E-05
(PID.TID 0000.0001) %MON trcstat_ptracer18_del2       =   2.6718724780114384E-07
(PID.TID 0000.0001) %MON trcstat_ptracer19_max        =   5.2723778070717002E-03
(PID.TID 0000.0001) %MON trcstat_ptracer19_min        =  -1.0059523305324089E-08
(PID.TID 0000.0001) %MON trcstat_ptracer19_mean       =   7.8578569761909563E-06
(PID.TID 0000.0001) %MON trcstat_ptracer19_sd         =   5.7077551059221789E-05
(PID.TID 0000.0001) %MON trcstat_ptracer19_del2       =   2.8943104890653554E-07
(PID.TID 0000.0001) %MON trcstat_ptracer20_max        =   7.1548903477529242E-03
(PID.TID 0000.0001) %MON trcstat_ptracer20_min        =  -1.1726687012056641E-08
(PID.TID 0000.0001) %MON trcstat_ptracer20_mean       =   9.3440132618581752E-06
(PID.TID 0000.0001) %MON trcstat_ptracer20_sd         =   6.9066250093149077E-05
(PID.TID 0000.0001) %MON trcstat_ptracer20_del2       =   3.4882134770440021E-07
(PID.TID 0000.0001) %MON trcstat_ptracer21_max        =   7.0828456277278184E-03
(PID.TID 0000.0001) %MON trcstat_ptracer21_min        =  -1.2012559974778287E-08
(PID.TID 0000.0001) %MON trcstat_ptracer21_mean       =   9.3999044757204005E-06
(PID.TID 0000.0001) %MON trcstat_ptracer21_sd         =   6.8978517457106938E-05
(PID.TID 0000.0001) %MON trcstat_ptracer21_del2       =   3.3705545136632141E-07
(PID.TID 0000.0001) %MON trcstat_ptracer22_max        =   6.7319526308274071E-03
(PID.TID 0000.0001) %MON trcstat_ptracer22_min        =  -1.2214451725512035E-08
(PID.TID 0000.0001) %MON trcstat_ptracer22_mean       =   9.3197897966398757E-06
(PID.TID 0000.0001) %MON trcstat_ptracer22_sd         =   6.7945692585180722E-05
(PID.TID 0000.0001) %MON trcstat_ptracer22_del2       =   3.3194765316595452E-07
(PID.TID 0000.0001) %MON trcstat_ptracer23_max        =   8.7721810985886481E-03
(PID.TID 0000.0001) %MON trcstat_ptracer23_min        =  -1.2409448531928619E-08
(PID.TID 0000.0001) %MON trcstat_ptracer23_mean       =   1.0826882190672138E-05
(PID.TID 0000.0001) %MON trcstat_ptracer23_sd         =   8.0756516925957657E-05
(PID.TID 0000.0001) %MON trcstat_ptracer23_del2       =   3.9114810501586235E-07
(PID.TID 0000.0001) %MON trcstat_ptracer24_max        =   8.3774120425971106E-03
(PID.TID 0000.0001) %MON trcstat_ptracer24_min        =  -1.2591886487668234E-08
(PID.TID 0000.0001) %MON trcstat_ptracer24_mean       =   1.0718667050117055E-05
(PID.TID 0000.0001) %MON trcstat_ptracer24_sd         =   7.9387050610757559E-05
(PID.TID 0000.0001) %MON trcstat_ptracer24_del2       =   3.8503984218194810E-07
(PID.TID 0000.0001) %MON trcstat_ptracer25_max        =   8.0052299167299792E-03
(PID.TID 0000.0001) %MON trcstat_ptracer25_min        =  -1.2653458864832797E-08
(PID.TID 0000.0001) %MON trcstat_ptracer25_mean       =   1.0636951105774164E-05
(PID.TID 0000.0001) %MON trcstat_ptracer25_sd         =   7.8296029528328659E-05
(PID.TID 0000.0001) %MON trcstat_ptracer25_del2       =   3.8025519538963916E-07
(PID.TID 0000.0001) %MON trcstat_ptracer26_max        =   7.6686098309539010E-03
(PID.TID 0000.0001) %MON trcstat_ptracer26_min        =  -1.2564487606529938E-08
(PID.TID 0000.0001) %MON trcstat_ptracer26_mean       =   1.0584497796576506E-05
(PID.TID 0000.0001) %MON trcstat_ptracer26_sd         =   7.7494600209552497E-05
(PID.TID 0000.0001) %MON trcstat_ptracer26_del2       =   3.7671100693454075E-07
(PID.TID 0000.0001) %MON trcstat_ptracer27_max        =   7.3514384506002377E-03
(PID.TID 0000.0001) %MON trcstat_ptracer27_min        =  -1.2199556610640267E-08
(PID.TID 0000.0001) %MON trcstat_ptracer27_mean       =   1.0543426737581082E-05
(PID.TID 0000.0001) %MON trcstat_ptracer27_sd         =   7.6832812497035769E-05
(PID.TID 0000.0001) %MON trcstat_ptracer27_del2       =   3.7358410272088157E-07
(PID.TID 0000.0001) %MON trcstat_ptracer28_max        =   1.0212294194810113E-02
(PID.TID 0000.0001) %MON trcstat_ptracer28_min        =  -1.1350677698354993E-08
(PID.TID 0000.0001) %MON trcstat_ptracer28_mean       =   1.2696685195091556E-05
(PID.TID 0000.0001) %MON trcstat_ptracer28_sd         =   9.5606148886648743E-05
(PID.TID 0000.0001) %MON trcstat_ptracer28_del2       =   4.6160464656482806E-07
(PID.TID 0000.0001) %MON trcstat_ptracer29_max        =   9.7671311121045861E-03
(PID.TID 0000.0001) %MON trcstat_ptracer29_min        =  -1.0240481336508055E-08
(PID.TID 0000.0001) %MON trcstat_ptracer29_mean       =   1.2553316601680468E-05
(PID.TID 0000.0001) %MON trcstat_ptracer29_sd         =   9.3908626633198709E-05
(PID.TID 0000.0001) %MON trcstat_ptracer29_del2       =   4.5278924089720077E-07
(PID.TID 0000.0001) %MON trcstat_ptracer30_max        =   9.4003361122411422E-03
(PID.TID 0000.0001) %MON trcstat_ptracer30_min        =  -8.7806675122398255E-09
(PID.TID 0000.0001) %MON trcstat_ptracer30_mean       =   1.2419310716361903E-05
(PID.TID 0000.0001) %MON trcstat_ptracer30_sd         =   9.2410939512559525E-05
(PID.TID 0000.0001) %MON trcstat_ptracer30_del2       =   4.4487135383089302E-07
(PID.TID 0000.0001) %MON trcstat_ptracer31_max        =   9.0890076561973877E-03
(PID.TID 0000.0001) %MON trcstat_ptracer31_min        =  -8.4119993688552960E-09
(PID.TID 0000.0001) %MON trcstat_ptracer31_mean       =   1.2265333748159057E-05
(PID.TID 0000.0001) %MON trcstat_ptracer31_sd         =   9.0818424514970807E-05
(PID.TID 0000.0001) %MON trcstat_ptracer31_del2       =   4.3657522438627942E-07
(PID.TID 0000.0001) %MON trcstat_ptracer32_max        =   8.7894479107094997E-03
(PID.TID 0000.0001) %MON trcstat_ptracer32_min        =  -8.0008007554945209E-09
(PID.TID 0000.0001) %MON trcstat_ptracer32_mean       =   1.2067703627150341E-05
(PID.TID 0000.0001) %MON trcstat_ptracer32_sd         =   8.8961625407683856E-05
(PID.TID 0000.0001) %MON trcstat_ptracer32_del2       =   4.2728435273754828E-07
(PID.TID 0000.0001) %MON trcstat_ptracer33_max        =   8.5309056336182951E-03
(PID.TID 0000.0001) %MON trcstat_ptracer33_min        =  -7.4586778387905958E-09
(PID.TID 0000.0001) %MON trcstat_ptracer33_mean       =   1.1828199604543185E-05
(PID.TID 0000.0001) %MON trcstat_ptracer33_sd         =   8.6793477719521921E-05
(PID.TID 0000.0001) %MON trcstat_ptracer33_del2       =   4.1664843923179376E-07
(PID.TID 0000.0001) %MON trcstat_ptracer34_max        =   8.2341240014300859E-03
(PID.TID 0000.0001) %MON trcstat_ptracer34_min        =  -6.7373694594201261E-09
(PID.TID 0000.0001) %MON trcstat_ptracer34_mean       =   1.1540834230292552E-05
(PID.TID 0000.0001) %MON trcstat_ptracer34_sd         =   8.4234018958146868E-05
(PID.TID 0000.0001) %MON trcstat_ptracer34_del2       =   4.0460888677442645E-07
(PID.TID 0000.0001) %MON trcstat_ptracer35_max        =   7.9285905001700765E-03
(PID.TID 0000.0001) %MON trcstat_ptracer35_min        =  -5.7676637140296460E-09
(PID.TID 0000.0001) %MON trcstat_ptracer35_mean       =   1.1219848728949533E-05
(PID.TID 0000.0001) %MON trcstat_ptracer35_sd         =   8.1347994221830588E-05
(PID.TID 0000.0001) %MON trcstat_ptracer35_del2       =   3.9105831851849777E-07
(PID.TID 0000.0001) %MON trcstat_ptracer36_max        =   7.5272435031285253E-03
(PID.TID 0000.0001) %MON trcstat_ptracer36_min        =  -4.4483392632683403E-09
(PID.TID 0000.0001) %MON trcstat_ptracer36_mean       =   1.0865180164472806E-05
(PID.TID 0000.0001) %MON trcstat_ptracer36_sd         =   7.8092005775729989E-05
(PID.TID 0000.0001) %MON trcstat_ptracer36_del2       =   3.7565148468152519E-07
(PID.TID 0000.0001) %MON trcstat_ptracer37_max        =   7.0583500217640789E-03
(PID.TID 0000.0001) %MON trcstat_ptracer37_min        =  -2.6241704425727355E-09
(PID.TID 0000.0001) %MON trcstat_ptracer37_mean       =   1.0485939030394042E-05
(PID.TID 0000.0001) %MON trcstat_ptracer37_sd         =   7.4575981624955701E-05
(PID.TID 0000.0001) %MON trcstat_ptracer37_del2       =   3.5883405774258520E-07
(PID.TID 0000.0001) %MON trcstat_ptracer38_max        =   6.4888578234288778E-03
(PID.TID 0000.0001) %MON trcstat_ptracer38_min        =  -5.6692825223509755E-11
(PID.TID 0000.0001) %MON trcstat_ptracer38_mean       =   1.0088135136360031E-05
(PID.TID 0000.0001) %MON trcstat_ptracer38_sd         =   7.0897053103696349E-05
(PID.TID 0000.0001) %MON trcstat_ptracer38_del2       =   3.4128143339620666E-07
(PID.TID 0000.0001) %MON trcstat_ptracer39_max        =   5.8413183691207911E-03
(PID.TID 0000.0001) %MON trcstat_ptracer39_min        =   3.5724541366467908E-09
(PID.TID 0000.0001) %MON trcstat_ptracer39_mean       =   9.6886193634606020E-06
(PID.TID 0000.0001) %MON trcstat_ptracer39_sd         =   6.7202790196023657E-05
(PID.TID 0000.0001) %MON trcstat_ptracer39_del2       =   3.2328391601641834E-07
(PID.TID 0000.0001) %MON trcstat_ptracer40_max        =   5.2114896156430293E-03
(PID.TID 0000.0001) %MON trcstat_ptracer40_min        =   8.8831152881088316E-09
(PID.TID 0000.0001) %MON trcstat_ptracer40_mean       =   9.3119377346998555E-06
(PID.TID 0000.0001) %MON trcstat_ptracer40_sd         =   6.3691066674165413E-05
(PID.TID 0000.0001) %MON trcstat_ptracer40_del2       =   3.0600998214194924E-07
(PID.TID 0000.0001) %MON trcstat_ptracer41_max        =   4.6076335724184172E-03
(PID.TID 0000.0001) %MON trcstat_ptracer41_min        =   1.6851627083609436E-08
(PID.TID 0000.0001) %MON trcstat_ptracer41_mean       =   8.9637855977324715E-06
(PID.TID 0000.0001) %MON trcstat_ptracer41_sd         =   6.0364061217676470E-05
(PID.TID 0000.0001) %MON trcstat_ptracer41_del2       =   2.8944561450495770E-07
(PID.TID 0000.0001) %MON trcstat_ptracer42_max        =   4.0315298953745556E-03
(PID.TID 0000.0001) %MON trcstat_ptracer42_min        =   2.7466252133880823E-08
(PID.TID 0000.0001) %MON trcstat_ptracer42_mean       =   8.6443035674880810E-06
(PID.TID 0000.0001) %MON trcstat_ptracer42_sd         =   5.7191534617861505E-05
(PID.TID 0000.0001) %MON trcstat_ptracer42_del2       =   2.7355622531235196E-07
(PID.TID 0000.0001) %MON trcstat_ptracer43_max        =   3.0960148638144416E-03
(PID.TID 0000.0001) %MON trcstat_ptracer43_min        =  -1.4563185248374812E-08
(PID.TID 0000.0001) %MON trcstat_ptracer43_mean       =   6.0475899306462972E-06
(PID.TID 0000.0001) %MON trcstat_ptracer43_sd         =   4.4869215952919345E-05
(PID.TID 0000.0001) %MON trcstat_ptracer43_del2       =   2.3447641134670440E-07
(PID.TID 0000.0001) %MON trcstat_ptracer44_max        =   3.0951500445599162E-03
(PID.TID 0000.0001) %MON trcstat_ptracer44_min        =  -1.4563180411123707E-08
(PID.TID 0000.0001) %MON trcstat_ptracer44_mean       =   6.0474567382191610E-06
(PID.TID 0000.0001) %MON trcstat_ptracer44_sd         =   4.4864970149559174E-05
(PID.TID 0000.0001) %MON trcstat_ptracer44_del2       =   2.3443017509274970E-07
(PID.TID 0000.0001) %MON trcstat_ptracer45_max        =   3.0943791304540755E-03
(PID.TID 0000.0001) %MON trcstat_ptracer45_min        =  -1.4563176080715147E-08
(PID.TID 0000.0001) %MON trcstat_ptracer45_mean       =   6.0473381153901307E-06
(PID.TID 0000.0001) %MON trcstat_ptracer45_sd         =   4.4861199250849635E-05
(PID.TID 0000.0001) %MON trcstat_ptracer45_del2       =   2.3438899311051043E-07
(PID.TID 0000.0001) %MON trcstat_ptracer46_max        =   3.0936916432102797E-03
(PID.TID 0000.0001) %MON trcstat_ptracer46_min        =  -1.4563172204131828E-08
(PID.TID 0000.0001) %MON trcstat_ptracer46_mean       =   6.0472324159134368E-06
(PID.TID 0000.0001) %MON trcstat_ptracer46_sd         =   4.4857847533073055E-05
(PID.TID 0000.0001) %MON trcstat_ptracer46_del2       =   2.3435229391584703E-07
(PID.TID 0000.0001) %MON trcstat_ptracer47_max        =   3.0930783278931683E-03
(PID.TID 0000.0001) %MON trcstat_ptracer47_min        =  -1.4563168733884518E-08
(PID.TID 0000.0001) %MON trcstat_ptracer47_mean       =   6.0471381895974043E-06
(PID.TID 0000.0001) %MON trcstat_ptracer47_sd         =   4.4854866175678499E-05
(PID.TID 0000.0001) %MON trcstat_ptracer47_del2       =   2.3431957198672756E-07
(PID.TID 0000.0001) %MON trcstat_ptracer48_max        =   3.0925309999680155E-03
(PID.TID 0000.0001) %MON trcstat_ptracer48_min        =  -1.4563165627439049E-08
(PID.TID 0000.0001) %MON trcstat_ptracer48_mean       =   6.0470541570339132E-06
(PID.TID 0000.0001) %MON trcstat_ptracer48_sd         =   4.4852212652868401E-05
(PID.TID 0000.0001) %MON trcstat_ptracer48_del2       =   2.3429038570525235E-07
(PID.TID 0000.0001) %MON trcstat_ptracer49_max        =   3.0920424132809101E-03
(PID.TID 0000.0001) %MON trcstat_ptracer49_min        =  -1.4563162846702283E-08
(PID.TID 0000.0001) %MON trcstat_ptracer49_mean       =   6.0469791880443712E-06
(PID.TID 0000.0001) %MON trcstat_ptracer49_sd         =   4.4849849390175190E-05
(PID.TID 0000.0001) %MON trcstat_ptracer49_del2       =   2.3426434379285247E-07
(PID.TID 0000.0001) %MON trcstat_ptracer50_max        =   3.0916061458041086E-03
(PID.TID 0000.0001) %MON trcstat_ptracer50_min        =  -1.4563160357560575E-08
(PID.TID 0000.0001) %MON trcstat_ptracer50_mean       =   6.0469122830148310E-06
(PID.TID 0000.0001) %MON trcstat_ptracer50_sd         =   4.4847743567346942E-05
(PID.TID 0000.0001) %MON trcstat_ptracer50_del2       =   2.3424109988578828E-07
(PID.TID 0000.0001) %MON trcstat_ptracer51_max        =   3.0912165005055406E-03
(PID.TID 0000.0001) %MON trcstat_ptracer51_min        =  -1.4563158129465879E-08
(PID.TID 0000.0001) %MON trcstat_ptracer51_mean       =   6.0468525568211933E-06
(PID.TID 0000.0001) %MON trcstat_ptracer51_sd         =   4.4845866429051086E-05
(PID.TID 0000.0001) %MON trcstat_ptracer51_del2       =   2.3422034752711234E-07
(PID.TID 0000.0001) %MON trcstat_ptracer52_max        =   3.0908684191327850E-03
(PID.TID 0000.0001) %MON trcstat_ptracer52_min        =  -1.4563156135064752E-08
(PID.TID 0000.0001) %MON trcstat_ptracer52_mean       =   6.0467992249491148E-06
(PID.TID 0000.0001) %MON trcstat_ptracer52_sd         =   4.4844192444446222E-05
(PID.TID 0000.0001) %MON trcstat_ptracer52_del2       =   2.3420181478871386E-07
(PID.TID 0000.0001) %MON trcstat_ptracer53_max        =   3.0905574070573712E-03
(PID.TID 0000.0001) %MON trcstat_ptracer53_min        =  -1.4563154349865025E-08
(PID.TID 0000.0001) %MON trcstat_ptracer53_mean       =   6.0467515913848152E-06
(PID.TID 0000.0001) %MON trcstat_ptracer53_sd         =   4.4842699068429109E-05
(PID.TID 0000.0001) %MON trcstat_ptracer53_del2       =   2.3418526038733207E-07
(PID.TID 0000.0001) %MON trcstat_ptracer54_max        =   3.0902794676188946E-03
(PID.TID 0000.0001) %MON trcstat_ptracer54_min        =  -1.4563152751937782E-08
(PID.TID 0000.0001) %MON trcstat_ptracer54_mean       =   6.0467090381034465E-06
(PID.TID 0000.0001) %MON trcstat_ptracer54_sd         =   4.4841366366295902E-05
(PID.TID 0000.0001) %MON trcstat_ptracer54_del2       =   2.3417047005033638E-07
(PID.TID 0000.0001) %MON trcstat_ptracer55_max        =   3.0900310446516366E-03
(PID.TID 0000.0001) %MON trcstat_ptracer55_min        =  -1.4563151321649742E-08
(PID.TID 0000.0001) %MON trcstat_ptracer55_mean       =   6.0466710159029300E-06
(PID.TID 0000.0001) %MON trcstat_ptracer55_sd         =   4.4840176691511192E-05
(PID.TID 0000.0001) %MON trcstat_ptracer55_del2       =   2.3415725332612363E-07
(PID.TID 0000.0001) %MON trcstat_ptracer56_max        =   3.0898089720782277E-03
(PID.TID 0000.0001) %MON trcstat_ptracer56_min        =  -1.4563150041423469E-08
(PID.TID 0000.0001) %MON trcstat_ptracer56_mean       =   6.0466370363950985E-06
(PID.TID 0000.0001) %MON trcstat_ptracer56_sd         =   4.4839114405785229E-05
(PID.TID 0000.0001) %MON trcstat_ptracer56_del2       =   2.3414544081568015E-07
(PID.TID 0000.0001) %MON trcstat_ptracer57_max        =   3.0896104296229921E-03
(PID.TID 0000.0001) %MON trcstat_ptracer57_min        =  -1.4563148895522700E-08
(PID.TID 0000.0001) %MON trcstat_ptracer57_mean       =   6.0466066649933243E-06
(PID.TID 0000.0001) %MON trcstat_ptracer57_sd         =   4.4838165636970258E-05
(PID.TID 0000.0001) %MON trcstat_ptracer57_del2       =   2.3413488174728864E-07
(PID.TID 0000.0001) %MON trcstat_ptracer58_max        =   3.0894329038378887E-03
(PID.TID 0000.0001) %MON trcstat_ptracer58_min        =  -1.4563147869859777E-08
(PID.TID 0000.0001) %MON trcstat_ptracer58_mean       =   6.0465795147610191E-06
(PID.TID 0000.0001) %MON trcstat_ptracer58_sd         =   4.4837318069062121E-05
(PID.TID 0000.0001) %MON trcstat_ptracer58_del2       =   2.3412544185393616E-07
(PID.TID 0000.0001) %MON trcstat_ptracer59_max        =   3.0892741537514091E-03
(PID.TID 0000.0001) %MON trcstat_ptracer59_min        =  -1.4563146951823269E-08
(PID.TID 0000.0001) %MON trcstat_ptracer59_mean       =   6.0465552410060567E-06
(PID.TID 0000.0001) %MON trcstat_ptracer59_sd         =   4.4836560758705152E-05
(PID.TID 0000.0001) %MON trcstat_ptracer59_del2       =   2.3411700150253161E-07
(PID.TID 0000.0001) %MON trcstat_ptracer60_max        =   3.0891321805494461E-03
(PID.TID 0000.0001) %MON trcstat_ptracer60_min        =  -1.4563146130123562E-08
(PID.TID 0000.0001) %MON trcstat_ptracer60_mean       =   6.0465335365229761E-06
(PID.TID 0000.0001) %MON trcstat_ptracer60_sd         =   4.4835883975145145E-05
(PID.TID 0000.0001) %MON trcstat_ptracer60_del2       =   2.3410945404907296E-07
(PID.TID 0000.0001) %MON trcstat_ptracer61_max        =   3.0890052007801565E-03
(PID.TID 0000.0001) %MON trcstat_ptracer61_min        =  -1.4563145394654467E-08
(PID.TID 0000.0001) %MON trcstat_ptracer61_mean       =   6.0465141273987837E-06
(PID.TID 0000.0001) %MON trcstat_ptracer61_sd         =   4.4835279060181369E-05
(PID.TID 0000.0001) %MON trcstat_ptracer61_del2       =   2.3410270438849894E-07
(PID.TID 0000.0001) %MON trcstat_ptracer62_max        =   3.0888916226450452E-03
(PID.TID 0000.0001) %MON trcstat_ptracer62_min        =  -1.4563144736369374E-08
(PID.TID 0000.0001) %MON trcstat_ptracer62_mean       =   6.0464967693104961E-06
(PID.TID 0000.0001) %MON trcstat_ptracer62_sd         =   4.4834738305719571E-05
(PID.TID 0000.0001) %MON trcstat_ptracer62_del2       =   2.3409666768986240E-07
(PID.TID 0000.0001) %MON trcstat_ptracer63_max        =   3.0887900249979110E-03
(PID.TID 0000.0001) %MON trcstat_ptracer63_min        =  -1.4563144147170233E-08
(PID.TID 0000.0001) %MON trcstat_ptracer63_mean       =   6.0464812442528493E-06
(PID.TID 0000.0001) %MON trcstat_ptracer63_sd         =   4.4834254844857427E-05
(PID.TID 0000.0001) %MON trcstat_ptracer63_del2       =   2.3409126821674977E-07
(PID.TID 0000.0001) %MON trcstat_ptracer64_max        =   3.0886991387238574E-03
(PID.TID 0000.0001) %MON trcstat_ptracer64_min        =  -1.4563143619808225E-08
(PID.TID 0000.0001) %MON trcstat_ptracer64_mean       =   6.0464673576420837E-06
(PID.TID 0000.0001) %MON trcstat_ptracer64_sd         =   4.4833822558030480E-05
(PID.TID 0000.0001) %MON trcstat_ptracer64_del2       =   2.3408643837262202E-07
(PID.TID 0000.0001) %MON trcstat_ptracer65_max        =   3.0886178302136076E-03
(PID.TID 0000.0001) %MON trcstat_ptracer65_min        =  -1.4563143147794776E-08
(PID.TID 0000.0001) %MON trcstat_ptracer65_mean       =   6.0464549357505332E-06
(PID.TID 0000.0001) %MON trcstat_ptracer65_sd         =   4.4833435989581327E-05
(PID.TID 0000.0001) %MON trcstat_ptracer65_del2       =   2.3408211780625283E-07
(PID.TID 0000.0001) %MON trcstat_ptracer66_max        =   3.0885450866852261E-03
(PID.TID 0000.0001) %MON trcstat_ptracer66_min        =  -1.4563142725321941E-08
(PID.TID 0000.0001) %MON trcstat_ptracer66_mean       =   6.0464438234325879E-06
(PID.TID 0000.0001) %MON trcstat_ptracer66_sd         =   4.4833090273273485E-05
(PID.TID 0000.0001) %MON trcstat_ptracer66_del2       =   2.3407825260128325E-07
(PID.TID 0000.0001) %MON trcstat_ptracer67_max        =   3.0884800031369068E-03
(PID.TID 0000.0001) %MON trcstat_ptracer67_min        =  -1.4563142347190934E-08
(PID.TID 0000.0001) %MON trcstat_ptracer67_mean       =   6.0464338821040988E-06
(PID.TID 0000.0001) %MON trcstat_ptracer67_sd         =   4.4832781065743618E-05
(PID.TID 0000.0001) %MON trcstat_ptracer67_del2       =   2.3407479459224938E-07
(PID.TID 0000.0001) %MON trcstat_ptracer68_max        =   3.0884217707416645E-03
(PID.TID 0000.0001) %MON trcstat_ptracer68_min        =  -1.4563142008748433E-08
(PID.TID 0000.0001) %MON trcstat_ptracer68_mean       =   6.0464249879507821E-06
(PID.TID 0000.0001) %MON trcstat_ptracer68_sd         =   4.4832504491174822E-05
(PID.TID 0000.0001) %MON trcstat_ptracer68_del2       =   2.3407170074587882E-07
(PID.TID 0000.0001) %MON trcstat_ptracer69_max        =   3.0883696665181997E-03
(PID.TID 0000.0001) %MON trcstat_ptracer69_min        =  -1.4563141705829294E-08
(PID.TID 0000.0001) %MON trcstat_ptracer69_mean       =   6.0464170303327895E-06
(PID.TID 0000.0001) %MON trcstat_ptracer69_sd         =   4.4832257089307078E-05
(PID.TID 0000.0001) %MON trcstat_ptracer69_del2       =   2.3406893260337994E-07
(PID.TID 0000.0001) %MON trcstat_ptracer70_max        =   3.0883230441324464E-03
(PID.TID 0000.0001) %MON trcstat_ptracer70_min        =  -1.4563141434705391E-08
(PID.TID 0000.0001) %MON trcstat_ptracer70_mean       =   6.0464099103660724E-06
(PID.TID 0000.0001) %MON trcstat_ptracer70_sd         =   4.4832035770008382E-05
(PID.TID 0000.0001) %MON trcstat_ptracer70_del2       =   2.3406645578919868E-07
(PID.TID 0000.0001) %MON trcstat_ptracer71_max        =   3.0882813257018782E-03
(PID.TID 0000.0001) %MON trcstat_ptracer71_min        =  -1.4563141192039715E-08
(PID.TID 0000.0001) %MON trcstat_ptracer71_mean       =   6.0464035396604863E-06
(PID.TID 0000.0001) %MON trcstat_ptracer71_sd         =   4.4831837773054412E-05
(PID.TID 0000.0001) %MON trcstat_ptracer71_del2       =   2.3406423957319754E-07
(PID.TID 0000.0001) %MON trcstat_ptracer72_max        =   3.0882439944899353E-03
(PID.TID 0000.0001) %MON trcstat_ptracer72_min        =  -1.4563140974845497E-08
(PID.TID 0000.0001) %MON trcstat_ptracer72_mean       =   6.0463978391958693E-06
(PID.TID 0000.0001) %MON trcstat_ptracer72_sd         =   4.4831660632396239E-05
(PID.TID 0000.0001) %MON trcstat_ptracer72_del2       =   2.3406225648063084E-07
(PID.TID 0000.0001) %MON trcstat_ptracer73_max        =   1.7195638086043720E-03
(PID.TID 0000.0001) %MON trcstat_ptracer73_min        =  -5.5274481345360125E-09
(PID.TID 0000.0001) %MON trcstat_ptracer73_mean       =   2.4133079776059389E-06
(PID.TID 0000.0001) %MON trcstat_ptracer73_sd         =   1.7401049956250035E-05
(PID.TID 0000.0001) %MON trcstat_ptracer73_del2       =   8.8951643588497372E-08
(PID.TID 0000.0001) %MON trcstat_ptracer74_max        =   1.4021798276233372E-03
(PID.TID 0000.0001) %MON trcstat_ptracer74_min        =  -3.9985882303522438E-09
(PID.TID 0000.0001) %MON trcstat_ptracer74_mean       =   2.2409809050935983E-06
(PID.TID 0000.0001) %MON trcstat_ptracer74_sd         =   1.6018036998526450E-05
(PID.TID 0000.0001) %MON trcstat_ptracer74_del2       =   7.7764882531142443E-08
(PID.TID 0000.0001) %MON trcstat_ptracer75_max        =   1.6069223631489701E-03
(PID.TID 0000.0001) %MON trcstat_ptracer75_min        =  -3.2355592595720887E-09
(PID.TID 0000.0001) %MON trcstat_ptracer75_mean       =   2.2619949553418122E-06
(PID.TID 0000.0001) %MON trcstat_ptracer75_sd         =   1.6393560970947432E-05
(PID.TID 0000.0001) %MON trcstat_ptracer75_del2       =   7.8593089000094854E-08
(PID.TID 0000.0001) %MON trcstat_ptracer76_max        =   1.4005706541384056E-03
(PID.TID 0000.0001) %MON trcstat_ptracer76_min        =  -3.0419974013045081E-09
(PID.TID 0000.0001) %MON trcstat_ptracer76_mean       =   2.0309932834707280E-06
(PID.TID 0000.0001) %MON trcstat_ptracer76_sd         =   1.4714570252538934E-05
(PID.TID 0000.0001) %MON trcstat_ptracer76_del2       =   7.1789893887967527E-08
(PID.TID 0000.0001) %MON trcstat_ptracer77_max        =   1.2753338982665913E-03
(PID.TID 0000.0001) %MON trcstat_ptracer77_min        =  -2.8698271336329885E-09
(PID.TID 0000.0001) %MON trcstat_ptracer77_mean       =   1.8526894784017732E-06
(PID.TID 0000.0001) %MON trcstat_ptracer77_sd         =   1.3430625278950221E-05
(PID.TID 0000.0001) %MON trcstat_ptracer77_del2       =   6.5992896235904268E-08
(PID.TID 0000.0001) %MON trcstat_ptracer78_max        =   1.5073190021998679E-03
(PID.TID 0000.0001) %MON trcstat_ptracer78_min        =  -2.6852796111914935E-09
(PID.TID 0000.0001) %MON trcstat_ptracer78_mean       =   1.8861164001213635E-06
(PID.TID 0000.0001) %MON trcstat_ptracer78_sd         =   1.3971966136375140E-05
(PID.TID 0000.0001) %MON trcstat_ptracer78_del2       =   6.9151959148801513E-08
(PID.TID 0000.0001) %MON trcstat_ptracer79_max        =   1.2858709718911929E-03
(PID.TID 0000.0001) %MON trcstat_ptracer79_min        =  -2.4738892035878754E-09
(PID.TID 0000.0001) %MON trcstat_ptracer79_mean       =   1.6788162919203869E-06
(PID.TID 0000.0001) %MON trcstat_ptracer79_sd         =   1.2366571450560442E-05
(PID.TID 0000.0001) %MON trcstat_ptracer79_del2       =   6.1449522529577053E-08
(PID.TID 0000.0001) %MON trcstat_ptracer80_max        =   1.0990919491826476E-03
(PID.TID 0000.0001) %MON trcstat_ptracer80_min        =  -2.2417303852852427E-09
(PID.TID 0000.0001) %MON trcstat_ptracer80_mean       =   1.4977511350158520E-06
(PID.TID 0000.0001) %MON trcstat_ptracer80_sd         =   1.0986226689792944E-05
(PID.TID 0000.0001) %MON trcstat_ptracer80_del2       =   5.4782339778673305E-08
(PID.TID 0000.0001) %MON trcstat_ptracer81_max        =   9.4123478808857725E-04
(PID.TID 0000.0001) %MON trcstat_ptracer81_min        =  -2.0108327317482505E-09
(PID.TID 0000.0001) %MON trcstat_ptracer81_mean       =   1.3413758554298433E-06
(PID.TID 0000.0001) %MON trcstat_ptracer81_sd         =   9.8091566805561623E-06
(PID.TID 0000.0001) %MON trcstat_ptracer81_del2       =   4.9082611881331126E-08
(PID.TID 0000.0001) %MON trcstat_ptracer82_max        =   8.0552334416961234E-04
(PID.TID 0000.0001) %MON trcstat_ptracer82_min        =  -1.8061313042672602E-09
(PID.TID 0000.0001) %MON trcstat_ptracer82_mean       =   1.2089275236170948E-06
(PID.TID 0000.0001) %MON trcstat_ptracer82_sd         =   8.8185233860713594E-06
(PID.TID 0000.0001) %MON trcstat_ptracer82_del2       =   4.4310084522391475E-08
(PID.TID 0000.0001) %MON trcstat_ptracer83_max        =   9.2205760889595557E-04
(PID.TID 0000.0001) %MON trcstat_ptracer83_min        =  -1.6982923198705790E-09
(PID.TID 0000.0001) %MON trcstat_ptracer83_mean       =   1.2207920289907650E-06
(PID.TID 0000.0001) %MON trcstat_ptracer83_sd         =   9.0437177215386746E-06
(PID.TID 0000.0001) %MON trcstat_ptracer83_del2       =   4.5649550756907157E-08
(PID.TID 0000.0001) %MON trcstat_ptracer84_max        =   7.7311825848757438E-04
(PID.TID 0000.0001) %MON trcstat_ptracer84_min        =  -1.5434157878638713E-09
(PID.TID 0000.0001) %MON trcstat_ptracer84_mean       =   1.1139610907516934E-06
(PID.TID 0000.0001) %MON trcstat_ptracer84_sd         =   8.1984081469001324E-06
(PID.TID 0000.0001) %MON trcstat_ptracer84_del2       =   4.1697003171703356E-08
(PID.TID 0000.0001) %MON trcstat_ptracer85_max        =   6.5196604708689702E-04
(PID.TID 0000.0001) %MON trcstat_ptracer85_min        =  -1.3376626293323828E-09
(PID.TID 0000.0001) %MON trcstat_ptracer85_mean       =   1.0350864530164379E-06
(PID.TID 0000.0001) %MON trcstat_ptracer85_sd         =   7.5876636992205012E-06
(PID.TID 0000.0001) %MON trcstat_ptracer85_del2       =   3.8857697473612559E-08
(PID.TID 0000.0001) %MON trcstat_ptracer86_max        =   5.5462124098150324E-04
(PID.TID 0000.0001) %MON trcstat_ptracer86_min        =  -1.0848925002650476E-09
(PID.TID 0000.0001) %MON trcstat_ptracer86_mean       =   9.8041539122035647E-07
(PID.TID 0000.0001) %MON trcstat_ptracer86_sd         =   7.1716817011624456E-06
(PID.TID 0000.0001) %MON trcstat_ptracer86_del2       =   3.6898289165887207E-08
(PID.TID 0000.0001) %MON trcstat_ptracer87_max        =   4.7798049031253171E-04
(PID.TID 0000.0001) %MON trcstat_ptracer87_min        =  -1.0277700745129561E-09
(PID.TID 0000.0001) %MON trcstat_ptracer87_mean       =   9.4568552907923467E-07
(PID.TID 0000.0001) %MON trcstat_ptracer87_sd         =   6.9097269886154560E-06
(PID.TID 0000.0001) %MON trcstat_ptracer87_del2       =   3.5631444789531195E-08
(PID.TID 0000.0001) %MON trcstat_ptracer88_max        =   4.3929998321785304E-04
(PID.TID 0000.0001) %MON trcstat_ptracer88_min        =  -9.5122900163941875E-10
(PID.TID 0000.0001) %MON trcstat_ptracer88_mean       =   9.2575049056529970E-07
(PID.TID 0000.0001) %MON trcstat_ptracer88_sd         =   6.7556021990656664E-06
(PID.TID 0000.0001) %MON trcstat_ptracer88_del2       =   3.4845283075275354E-08
(PID.TID 0000.0001) %MON trcstat_ptracer89_max        =   4.3634271700379606E-04
(PID.TID 0000.0001) %MON trcstat_ptracer89_min        =  -8.4800910153654896E-10
(PID.TID 0000.0001) %MON trcstat_ptracer89_mean       =   9.1463301357162538E-07
(PID.TID 0000.0001) %MON trcstat_ptracer89_sd         =   6.6626446079394367E-06
(PID.TID 0000.0001) %MON trcstat_ptracer89_del2       =   3.4332625819590393E-08
(PID.TID 0000.0001) %MON trcstat_ptracer90_max        =   4.3249267129454022E-04
(PID.TID 0000.0001) %MON trcstat_ptracer90_min        =  -7.0768660334400617E-10
(PID.TID 0000.0001) %MON trcstat_ptracer90_mean       =   9.0840520451825625E-07
(PID.TID 0000.0001) %MON trcstat_ptracer90_sd         =   6.6008905165136930E-06
(PID.TID 0000.0001) %MON trcstat_ptracer90_del2       =   3.3961591161203435E-08
(PID.TID 0000.0001) %MON trcstat_ptracer91_max        =   4.2749049873167525E-04
(PID.TID 0000.0001) %MON trcstat_ptracer91_min        =  -5.1500558498507119E-10
(PID.TID 0000.0001) %MON trcstat_ptracer91_mean       =   9.0527328705751557E-07
(PID.TID 0000.0001) %MON trcstat_ptracer91_sd         =   6.5548460869658395E-06
(PID.TID 0000.0001) %MON trcstat_ptracer91_del2       =   3.3658302631369657E-08
(PID.TID 0000.0001) %MON trcstat_ptracer92_max        =   4.2100876976653069E-04
(PID.TID 0000.0001) %MON trcstat_ptracer92_min        =  -2.4623785578806891E-10
(PID.TID 0000.0001) %MON trcstat_ptracer92_mean       =   9.0389117612823794E-07
(PID.TID 0000.0001) %MON trcstat_ptracer92_sd         =   6.5127644251227340E-06
(PID.TID 0000.0001) %MON trcstat_ptracer92_del2       =   3.3360342384143086E-08
(PID.TID 0000.0001) %MON trcstat_ptracer93_max        =   4.1263934802145006E-04
(PID.TID 0000.0001) %MON trcstat_ptracer93_min        =   1.3342020565604387E-10
(PID.TID 0000.0001) %MON trcstat_ptracer93_mean       =   9.0348538612793484E-07
(PID.TID 0000.0001) %MON trcstat_ptracer93_sd         =   6.4669380680613340E-06
(PID.TID 0000.0001) %MON trcstat_ptracer93_del2       =   3.3021232759953000E-08
(PID.TID 0000.0001) %MON trcstat_ptracer94_max        =   4.0188246299719549E-04
(PID.TID 0000.0001) %MON trcstat_ptracer94_min        =   6.7217884936229668E-10
(PID.TID 0000.0001) %MON trcstat_ptracer94_mean       =   9.0347198064359979E-07
(PID.TID 0000.0001) %MON trcstat_ptracer94_sd         =   6.4115164614153399E-06
(PID.TID 0000.0001) %MON trcstat_ptracer94_del2       =   3.2613808009293879E-08
(PID.TID 0000.0001) %MON trcstat_ptracer95_max        =   3.8814145020683193E-04
(PID.TID 0000.0001) %MON trcstat_ptracer95_min        =   1.4654119881183940E-09
(PID.TID 0000.0001) %MON trcstat_ptracer95_mean       =   9.0349491194385620E-07
(PID.TID 0000.0001) %MON trcstat_ptracer95_sd         =   6.3419009116012009E-06
(PID.TID 0000.0001) %MON trcstat_ptracer95_del2       =   3.2110774364334734E-08
(PID.TID 0000.0001) %MON trcstat_ptracer96_max        =   3.8678352133731368E-04
(PID.TID 0000.0001) %MON trcstat_ptracer96_min        =   2.6591400612675338E-09
(PID.TID 0000.0001) %MON trcstat_ptracer96_mean       =   9.0352462182544977E-07
(PID.TID 0000.0001) %MON trcstat_ptracer96_sd         =   6.2553906796374830E-06
(PID.TID 0000.0001) %MON trcstat_ptracer96_del2       =   3.1502954404820352E-08
(PID.TID 0000.0001) %MON trcstat_ptracer97_max        =   3.8617416773185193E-04
(PID.TID 0000.0001) %MON trcstat_ptracer97_min        =   4.1857782110181118E-09
(PID.TID 0000.0001) %MON trcstat_ptracer97_mean       =   9.0356298313216678E-07
(PID.TID 0000.0001) %MON trcstat_ptracer97_sd         =   6.1494816989286298E-06
(PID.TID 0000.0001) %MON trcstat_ptracer97_del2       =   3.0793015679639813E-08
(PID.TID 0000.0001) %MON trcstat_ptracer98_max        =   4.6615845111768427E-04
(PID.TID 0000.0001) %MON trcstat_ptracer98_min        =  -2.1982118606507968E-09
(PID.TID 0000.0001) %MON trcstat_ptracer98_mean       =   9.1266482055991751E-07
(PID.TID 0000.0001) %MON trcstat_ptracer98_sd         =   6.7671686356112410E-06
(PID.TID 0000.0001) %MON trcstat_ptracer98_del2       =   3.5330203181630864E-08
(PID.TID 0000.0001) %MON trcstat_ptracer99_max        =   4.6614863701962265E-04
(PID.TID 0000.0001) %MON trcstat_ptracer99_min        =  -2.1982118522224066E-09
(PID.TID 0000.0001) %MON trcstat_ptracer99_mean       =   9.1266334777959026E-07
(PID.TID 0000.0001) %MON trcstat_ptracer99_sd         =   6.7671041781540047E-06
(PID.TID 0000.0001) %MON trcstat_ptracer99_del2       =   3.5329750844619399E-08
(PID.TID 0000.0001) %MON trcstat_ptracer0a_max        =   4.6614062248266283E-04
(PID.TID 0000.0001) %MON trcstat_ptracer0a_min        =  -2.1982118444194535E-09
(PID.TID 0000.0001) %MON trcstat_ptracer0a_mean       =   9.1266214774911009E-07
(PID.TID 0000.0001) %MON trcstat_ptracer0a_sd         =   6.7670518939623724E-06
(PID.TID 0000.0001) %MON trcstat_ptracer0a_del2       =   3.5329381674474096E-08
(PID.TID 0000.0001) %MON trcstat_ptracer0b_max        =   4.6613406693174963E-04
(PID.TID 0000.0001) %MON trcstat_ptracer0b_min        =  -2.1982118372278580E-09
(PID.TID 0000.0001) %MON trcstat_ptracer0b_mean       =   9.1266116860636338E-07
(PID.TID 0000.0001) %MON trcstat_ptracer0b_sd         =   6.7670094406647871E-06
(PID.TID 0000.0001) %MON trcstat_ptracer0b_del2       =   3.5329079828537427E-08
(PID.TID 0000.0001) %MON trcstat_ptracer0c_max        =   4.6612869532905676E-04
(PID.TID 0000.0001) %MON trcstat_ptracer0c_min        =  -2.1982118306247700E-09
(PID.TID 0000.0001) %MON trcstat_ptracer0c_mean       =   9.1266036847127143E-07
(PID.TID 0000.0001) %MON trcstat_ptracer0c_sd         =   6.7669749305651278E-06
(PID.TID 0000.0001) %MON trcstat_ptracer0c_del2       =   3.5328832546869899E-08
(PID.TID 0000.0001) %MON trcstat_ptracer0d_max        =   4.6612428547677156E-04
(PID.TID 0000.0001) %MON trcstat_ptracer0d_min        =  -2.1982118245815245E-09
(PID.TID 0000.0001) %MON trcstat_ptracer0d_mean       =   9.1265971353907192E-07
(PID.TID 0000.0001) %MON trcstat_ptracer0d_sd         =   6.7669468424093632E-06
(PID.TID 0000.0001) %MON trcstat_ptracer0d_del2       =   3.5328629549022367E-08
(PID.TID 0000.0001) %MON trcstat_ptracer0e_max        =   4.6612065778002548E-04
(PID.TID 0000.0001) %MON trcstat_ptracer0e_min        =  -2.1982118190658681E-09
(PID.TID 0000.0001) %MON trcstat_ptracer0e_mean       =   9.1265917648383612E-07
(PID.TID 0000.0001) %MON trcstat_ptracer0e_sd         =   6.7669239494786150E-06
(PID.TID 0000.0001) %MON trcstat_ptracer0e_del2       =   3.5328462540128769E-08
(PID.TID 0000.0001) %MON trcstat_ptracer0f_max        =   4.6611766699578933E-04
(PID.TID 0000.0001) %MON trcstat_ptracer0f_min        =  -2.1982118140436542E-09
(PID.TID 0000.0001) %MON trcstat_ptracer0f_mean       =   9.1265873523730156E-07
(PID.TID 0000.0001) %MON trcstat_ptracer0f_sd         =   6.7669052628373219E-06
(PID.TID 0000.0001) %MON trcstat_ptracer0f_del2       =   3.5328324822404003E-08
(PID.TID 0000.0001) %MON trcstat_ptracer0g_max        =   4.6611519558399466E-04
(PID.TID 0000.0001) %MON trcstat_ptracer0g_min        =  -2.1982118094801100E-09
(PID.TID 0000.0001) %MON trcstat_ptracer0g_mean       =   9.1265837196156709E-07
(PID.TID 0000.0001) %MON trcstat_ptracer0g_sd         =   6.7668899848385292E-06
(PID.TID 0000.0001) %MON trcstat_ptracer0g_del2       =   3.5328210982676815E-08
(PID.TID 0000.0001) %MON trcstat_ptracer0h_max        =   4.6611314835062154E-04
(PID.TID 0000.0001) %MON trcstat_ptracer0h_min        =  -2.1982118053407216E-09
(PID.TID 0000.0001) %MON trcstat_ptracer0h_mean       =   9.1265807221441434E-07
(PID.TID 0000.0001) %MON trcstat_ptracer0h_sd         =   6.7668774715710066E-06
(PID.TID 0000.0001) %MON trcstat_ptracer0h_del2       =   3.5328116641048981E-08
(PID.TID 0000.0001) %MON trcstat_ptracer0i_max        =   4.6611144813211666E-04
(PID.TID 0000.0001) %MON trcstat_ptracer0i_min        =  -2.1982118015918820E-09
(PID.TID 0000.0001) %MON trcstat_ptracer0i_mean       =   9.1265782430355190E-07
(PID.TID 0000.0001) %MON trcstat_ptracer0i_sd         =   6.7668672031511218E-06
(PID.TID 0000.0001) %MON trcstat_ptracer0i_del2       =   3.5328038250047762E-08
(PID.TID 0000.0001) %MON trcstat_ptracer0j_max        =   4.6611003231881895E-04
(PID.TID 0000.0001) %MON trcstat_ptracer0j_min        =  -2.1982117982013468E-09
(PID.TID 0000.0001) %MON trcstat_ptracer0j_mean       =   9.1265761875551703E-07
(PID.TID 0000.0001) %MON trcstat_ptracer0j_sd         =   6.7668587596052402E-06
(PID.TID 0000.0001) %MON trcstat_ptracer0j_del2       =   3.5327972933035307E-08
(PID.TID 0000.0001) %MON trcstat_ptracer0k_max        =   4.6610885005418055E-04
(PID.TID 0000.0001) %MON trcstat_ptracer0k_min        =  -2.1982117951385021E-09
(PID.TID 0000.0001) %MON trcstat_ptracer0k_mean       =   9.1265744788772364E-07
(PID.TID 0000.0001) %MON trcstat_ptracer0k_sd         =   6.7668518014567798E-06
(PID.TID 0000.0001) %MON trcstat_ptracer0k_del2       =   3.5327918354392964E-08
(PID.TID 0000.0001) %MON trcstat_ptracer0l_max        =   4.6610785997818681E-04
(PID.TID 0000.0001) %MON trcstat_ptracer0l_min        =  -2.1982117923745745E-09
(PID.TID 0000.0001) %MON trcstat_ptracer0l_mean       =   9.1265730546361341E-07
(PID.TID 0000.0001) %MON trcstat_ptracer0l_sd         =   6.7668460541032446E-06
(PID.TID 0000.0001) %MON trcstat_ptracer0l_del2       =   3.5327872615173311E-08
(PID.TID 0000.0001) %MON trcstat_ptracer0m_max        =   4.6610702840893542E-04
(PID.TID 0000.0001) %MON trcstat_ptracer0m_min        =  -2.1982117898826767E-09
(PID.TID 0000.0001) %MON trcstat_ptracer0m_mean       =   9.1265718641476935E-07
(PID.TID 0000.0001) %MON trcstat_ptracer0m_sd         =   6.7668412952397820E-06
(PID.TID 0000.0001) %MON trcstat_ptracer0m_del2       =   3.5327834169179476E-08
(PID.TID 0000.0001) %MON trcstat_ptracer0n_max        =   4.6610632787695382E-04
(PID.TID 0000.0001) %MON trcstat_ptracer0n_min        =  -2.1982117876378513E-09
(PID.TID 0000.0001) %MON trcstat_ptracer0n_mean       =   9.1265708661698434E-07
(PID.TID 0000.0001) %MON trcstat_ptracer0n_sd         =   6.7668373447379403E-06
(PID.TID 0000.0001) %MON trcstat_ptracer0n_del2       =   3.5327801755432319E-08
(PID.TID 0000.0001) %MON trcstat_ptracer0o_max        =   4.6610573594347014E-04
(PID.TID 0000.0001) %MON trcstat_ptracer0o_min        =  -2.1982117856170577E-09
(PID.TID 0000.0001) %MON trcstat_ptracer0o_mean       =   9.1265700270975987E-07
(PID.TID 0000.0001) %MON trcstat_ptracer0o_sd         =   6.7668340564971821E-06
(PID.TID 0000.0001) %MON trcstat_ptracer0o_del2       =   3.5327774343796688E-08
(PID.TID 0000.0001) %MON trcstat_ptracer0p_max        =   4.6610523424727270E-04
(PID.TID 0000.0001) %MON trcstat_ptracer0p_min        =  -2.1982117837990830E-09
(PID.TID 0000.0001) %MON trcstat_ptracer0p_mean       =   9.1265693195073107E-07
(PID.TID 0000.0001) %MON trcstat_ptracer0p_sd         =   6.7668313118851002E-06
(PID.TID 0000.0001) %MON trcstat_ptracer0p_del2       =   3.5327751091173707E-08
(PID.TID 0000.0001) %MON trcstat_ptracer0q_max        =   4.6610480773559223E-04
(PID.TID 0000.0001) %MON trcstat_ptracer0q_min        =  -2.1982117821644964E-09
(PID.TID 0000.0001) %MON trcstat_ptracer0q_mean       =   9.1265687209834265E-07
(PID.TID 0000.0001) %MON trcstat_ptracer0q_sd         =   6.7668290144546955E-06
(PID.TID 0000.0001) %MON trcstat_ptracer0q_del2       =   3.5327731306184167E-08
(PID.TID 0000.0001) %MON trcstat_ptracer0r_max        =   4.6610444404315165E-04
(PID.TID 0000.0001) %MON trcstat_ptracer0r_min        =  -2.1982117806955258E-09
(PID.TID 0000.0001) %MON trcstat_ptracer0r_mean       =   9.1265682131709931E-07
(PID.TID 0000.0001) %MON trcstat_ptracer0r_sd         =   6.7668270856903895E-06
(PID.TID 0000.0001) %MON trcstat_ptracer0r_del2       =   3.5327714420676768E-08
(PID.TID 0000.0001) %MON trcstat_ptracer0s_max        =   4.6610413299053526E-04
(PID.TID 0000.0001) %MON trcstat_ptracer0s_min        =  -2.1982117793759667E-09
(PID.TID 0000.0001) %MON trcstat_ptracer0s_mean       =   9.1265677810116780E-07
(PID.TID 0000.0001) %MON trcstat_ptracer0s_sd         =   6.7668254615796900E-06
(PID.TID 0000.0001) %MON trcstat_ptracer0s_del2       =   3.5327699966723881E-08
(PID.TID 0000.0001) %MON trcstat_ptracer0t_max        =   4.6610386617866720E-04
(PID.TID 0000.0001) %MON trcstat_ptracer0t_min        =  -2.1982117781910959E-09
(PID.TID 0000.0001) %MON trcstat_ptracer0t_mean       =   9.1265674121261147E-07
(PID.TID 0000.0001) %MON trcstat_ptracer0t_sd         =   6.7668240898510663E-06
(PID.TID 0000.0001) %MON trcstat_ptracer0t_del2       =   3.5327687558035166E-08
(PID.TID 0000.0001) %MON trcstat_ptracer0u_max        =   4.6610363666072571E-04
(PID.TID 0000.0001) %MON trcstat_ptracer0u_min        =  -2.1982117771275376E-09
(PID.TID 0000.0001) %MON trcstat_ptracer0u_mean       =   9.1265670963150811E-07
(PID.TID 0000.0001) %MON trcstat_ptracer0u_sd         =   6.7668229277463809E-06
(PID.TID 0000.0001) %MON trcstat_ptracer0u_del2       =   3.5327676874923783E-08
(PID.TID 0000.0001) %MON trcstat_ptracer0v_max        =   4.6610343867647610E-04
(PID.TID 0000.0001) %MON trcstat_ptracer0v_min        =  -2.1982117761731681E-09
(PID.TID 0000.0001) %MON trcstat_ptracer0v_mean       =   9.1265668251562554E-07
(PID.TID 0000.0001) %MON trcstat_ptracer0v_sd         =   6.7668219402240518E-06
(PID.TID 0000.0001) %MON trcstat_ptracer0v_del2       =   3.5327667652134961E-08
(PID.TID 0000.0001) %MON trcstat_ptracer0w_max        =   4.6610326743693327E-04
(PID.TID 0000.0001) %MON trcstat_ptracer0w_min        =  -2.1982117753170068E-09
(PID.TID 0000.0001) %MON trcstat_ptracer0w_mean       =   9.1265665916773060E-07
(PID.TID 0000.0001) %MON trcstat_ptracer0w_sd         =   6.7668210985091145E-06
(PID.TID 0000.0001) %MON trcstat_ptracer0w_del2       =   3.5327659668983814E-08
(PID.TID 0000.0001) %MON trcstat_ptracer0x_max        =   4.6610311894962933E-04
(PID.TID 0000.0001) %MON trcstat_ptracer0x_min        =  -2.1982117745491404E-09
(PID.TID 0000.0001) %MON trcstat_ptracer0x_mean       =   9.1265663900915823E-07
(PID.TID 0000.0001) %MON trcstat_ptracer0x_sd         =   6.7668203789217380E-06
(PID.TID 0000.0001) %MON trcstat_ptracer0x_del2       =   3.5327652741351034E-08
(PID.TID 0000.0001) %MON trcstat_ptracer0y_max        =   4.6610298987665962E-04
(PID.TID 0000.0001) %MON trcstat_ptracer0y_min        =  -2.1982117738606279E-09
(PID.TID 0000.0001) %MON trcstat_ptracer0y_mean       =   9.1265662155838185E-07
(PID.TID 0000.0001) %MON trcstat_ptracer0y_sd         =   6.7668197619311748E-06
(PID.TID 0000.0001) %MON trcstat_ptracer0y_del2       =   3.5327646715180791E-08
(PID.TID 0000.0001) %MON trcstat_ptracer0z_max        =   4.6610287741920720E-04
(PID.TID 0000.0001) %MON trcstat_ptracer0z_min        =  -2.1982117732433696E-09
(PID.TID 0000.0001) %MON trcstat_ptracer0z_mean       =   9.1265660641354244E-07
(PID.TID 0000.0001) %MON trcstat_ptracer0z_sd         =   6.7668192313895328E-06
(PID.TID 0000.0001) %MON trcstat_ptracer0z_del2       =   3.5327641461190380E-08
(PID.TID 0000.0001) %MON trcstat_ptracer0A_max        =   4.6610277922346909E-04
(PID.TID 0000.0001) %MON trcstat_ptracer0A_min        =  -2.1982117726901016E-09
(PID.TID 0000.0001) %MON trcstat_ptracer0A_mean       =   9.1265659323835618E-07
(PID.TID 0000.0001) %MON trcstat_ptracer0A_sd         =   6.7668187739126996E-06
(PID.TID 0000.0001) %MON trcstat_ptracer0A_del2       =   3.5327636870559228E-08
(PID.TID 0000.0001) %MON trcstat_ptracer0B_max        =   4.6610269330390027E-04
(PID.TID 0000.0001) %MON trcstat_ptracer0B_min        =  -2.1982117721942560E-09
(PID.TID 0000.0001) %MON trcstat_ptracer0B_mean       =   9.1265658175054574E-07
(PID.TID 0000.0001) %MON trcstat_ptracer0B_sd         =   6.7668183783775155E-06
(PID.TID 0000.0001) %MON trcstat_ptracer0B_del2       =   3.5327632851411054E-08
(PID.TID 0000.0001) %MON trcstat_ptracer0C_max        =   1.0292106544017699E-07
(PID.TID 0000.0001) %MON trcstat_ptracer0C_min        =  -2.1465773445863319E-13
(PID.TID 0000.0001) %MON trcstat_ptracer0C_mean       =   1.5644758779950333E-10
(PID.TID 0000.0001) %MON trcstat_ptracer0C_sd         =   1.1228462286815441E-09
(PID.TID 0000.0001) %MON trcstat_ptracer0C_del2       =   5.5696181804429211E-12
(PID.TID 0000.0001) %MON trcstat_ptracer0D_max        =   1.0246468559171240E-07
(PID.TID 0000.0001) %MON trcstat_ptracer0D_min        =  -2.1905719414290703E-13
(PID.TID 0000.0001) %MON trcstat_ptracer0D_mean       =   1.4861647102673177E-10
(PID.TID 0000.0001) %MON trcstat_ptracer0D_sd         =   1.0669848665930318E-09
(PID.TID 0000.0001) %MON trcstat_ptracer0D_del2       =   5.2442408648752713E-12
(PID.TID 0000.0001) %MON trcstat_ptracer0E_max        =   1.0672520054161823E-07
(PID.TID 0000.0001) %MON trcstat_ptracer0E_min        =  -2.1411756368909049E-13
(PID.TID 0000.0001) %MON trcstat_ptracer0E_mean       =   1.4395910904979248E-10
(PID.TID 0000.0001) %MON trcstat_ptracer0E_sd         =   1.0435189857899948E-09
(PID.TID 0000.0001) %MON trcstat_ptracer0E_del2       =   5.1201540899206266E-12
(PID.TID 0000.0001) %MON trcstat_ptracer0F_max        =   9.3970117678315169E-08
(PID.TID 0000.0001) %MON trcstat_ptracer0F_min        =  -1.9586817346210898E-13
(PID.TID 0000.0001) %MON trcstat_ptracer0F_mean       =   1.2800921572637971E-10
(PID.TID 0000.0001) %MON trcstat_ptracer0F_sd         =   9.2643835394301680E-10
(PID.TID 0000.0001) %MON trcstat_ptracer0F_del2       =   4.5530691989974361E-12
(PID.TID 0000.0001) %MON trcstat_ptracer0G_max        =   8.2035686984803075E-08
(PID.TID 0000.0001) %MON trcstat_ptracer0G_min        =  -1.7942503240053087E-13
(PID.TID 0000.0001) %MON trcstat_ptracer0G_mean       =   1.1367407370617607E-10
(PID.TID 0000.0001) %MON trcstat_ptracer0G_sd         =   8.2210084301917057E-10
(PID.TID 0000.0001) %MON trcstat_ptracer0G_del2       =   4.0593667979601569E-12
(PID.TID 0000.0001) %MON trcstat_ptracer0H_max        =   8.2966870286766335E-08
(PID.TID 0000.0001) %MON trcstat_ptracer0H_min        =  -1.6443695018090838E-13
(PID.TID 0000.0001) %MON trcstat_ptracer0H_mean       =   1.0730749358528896E-10
(PID.TID 0000.0001) %MON trcstat_ptracer0H_sd         =   7.8429509226427646E-10
(PID.TID 0000.0001) %MON trcstat_ptracer0H_del2       =   3.8907378218294749E-12
(PID.TID 0000.0001) %MON trcstat_ptracer0I_max        =   7.0356341797259774E-08
(PID.TID 0000.0001) %MON trcstat_ptracer0I_min        =  -1.5043093616229515E-13
(PID.TID 0000.0001) %MON trcstat_ptracer0I_mean       =   9.4942597217345264E-11
(PID.TID 0000.0001) %MON trcstat_ptracer0I_sd         =   6.9156377444550930E-10
(PID.TID 0000.0001) %MON trcstat_ptracer0I_del2       =   3.4420830773418791E-12
(PID.TID 0000.0001) %MON trcstat_ptracer0J_max        =   5.9931041315760514E-08
(PID.TID 0000.0001) %MON trcstat_ptracer0J_min        =  -1.3712047497336040E-13
(PID.TID 0000.0001) %MON trcstat_ptracer0J_mean       =   8.4546410554489787E-11
(PID.TID 0000.0001) %MON trcstat_ptracer0J_sd         =   6.1438864796513887E-10
(PID.TID 0000.0001) %MON trcstat_ptracer0J_del2       =   3.0688547401836693E-12
(PID.TID 0000.0001) %MON trcstat_ptracer0K_max        =   5.1340282983326589E-08
(PID.TID 0000.0001) %MON trcstat_ptracer0K_min        =  -1.2437376401678858E-13
(PID.TID 0000.0001) %MON trcstat_ptracer0K_mean       =   7.5859264154799755E-11
(PID.TID 0000.0001) %MON trcstat_ptracer0K_sd         =   5.5047156609750169E-10
(PID.TID 0000.0001) %MON trcstat_ptracer0K_del2       =   2.7599884664265445E-12
(PID.TID 0000.0001) %MON trcstat_ptracer0L_max        =   4.4132637086825240E-08
(PID.TID 0000.0001) %MON trcstat_ptracer0L_min        =  -1.1177344485486096E-13
(PID.TID 0000.0001) %MON trcstat_ptracer0L_mean       =   6.8552404223278410E-11
(PID.TID 0000.0001) %MON trcstat_ptracer0L_sd         =   4.9708460757944326E-10
(PID.TID 0000.0001) %MON trcstat_ptracer0L_del2       =   2.5020871275628170E-12
(PID.TID 0000.0001) %MON trcstat_ptracer0M_max        =   4.5137940299174887E-08
(PID.TID 0000.0001) %MON trcstat_ptracer0M_min        =  -9.9117172129299429E-14
(PID.TID 0000.0001) %MON trcstat_ptracer0M_mean       =   6.5797269838112478E-11
(PID.TID 0000.0001) %MON trcstat_ptracer0M_sd         =   4.7998493053182882E-10
(PID.TID 0000.0001) %MON trcstat_ptracer0M_del2       =   2.4216616064391012E-12
(PID.TID 0000.0001) %MON trcstat_ptracer0N_max        =   3.8604629077103164E-08
(PID.TID 0000.0001) %MON trcstat_ptracer0N_min        =  -8.6065817440018581E-14
(PID.TID 0000.0001) %MON trcstat_ptracer0N_mean       =   6.0014307774390391E-11
(PID.TID 0000.0001) %MON trcstat_ptracer0N_sd         =   4.3681748878567274E-10
(PID.TID 0000.0001) %MON trcstat_ptracer0N_del2       =   2.2117536005190371E-12
(PID.TID 0000.0001) %MON trcstat_ptracer0O_max        =   3.3358787995603217E-08
(PID.TID 0000.0001) %MON trcstat_ptracer0O_min        =  -7.1813041910559677E-14
(PID.TID 0000.0001) %MON trcstat_ptracer0O_mean       =   5.5369892534870585E-11
(PID.TID 0000.0001) %MON trcstat_ptracer0O_sd         =   4.0249465746093530E-10
(PID.TID 0000.0001) %MON trcstat_ptracer0O_del2       =   2.0450696374376097E-12
(PID.TID 0000.0001) %MON trcstat_ptracer0P_max        =   2.9095815704788165E-08
(PID.TID 0000.0001) %MON trcstat_ptracer0P_min        =  -5.5572583913612939E-14
(PID.TID 0000.0001) %MON trcstat_ptracer0P_mean       =   5.1654283848942508E-11
(PID.TID 0000.0001) %MON trcstat_ptracer0P_sd         =   3.7518090832157098E-10
(PID.TID 0000.0001) %MON trcstat_ptracer0P_del2       =   1.9124241791166849E-12
(PID.TID 0000.0001) %MON trcstat_ptracer0Q_max        =   2.5580999697705458E-08
(PID.TID 0000.0001) %MON trcstat_ptracer0Q_min        =  -4.9485545985414801E-14
(PID.TID 0000.0001) %MON trcstat_ptracer0Q_mean       =   4.8708331122583583E-11
(PID.TID 0000.0001) %MON trcstat_ptracer0Q_sd         =   3.5365035202565698E-10
(PID.TID 0000.0001) %MON trcstat_ptracer0Q_del2       =   1.8073748314486386E-12
(PID.TID 0000.0001) %MON trcstat_ptracer0R_max        =   2.2814465432785057E-08
(PID.TID 0000.0001) %MON trcstat_ptracer0R_min        =  -4.4972671781344369E-14
(PID.TID 0000.0001) %MON trcstat_ptracer0R_mean       =   4.6432145535703102E-11
(PID.TID 0000.0001) %MON trcstat_ptracer0R_sd         =   3.3697745925542368E-10
(PID.TID 0000.0001) %MON trcstat_ptracer0R_del2       =   1.7253303193311611E-12
(PID.TID 0000.0001) %MON trcstat_ptracer0S_max        =   2.0572243247736833E-08
(PID.TID 0000.0001) %MON trcstat_ptracer0S_min        =  -3.9530526732136565E-14
(PID.TID 0000.0001) %MON trcstat_ptracer0S_mean       =   4.4684071092575520E-11
(PID.TID 0000.0001) %MON trcstat_ptracer0S_sd         =   3.2401443156952479E-10
(PID.TID 0000.0001) %MON trcstat_ptracer0S_del2       =   1.6607187035243953E-12
(PID.TID 0000.0001) %MON trcstat_ptracer0T_max        =   2.0040943319436786E-08
(PID.TID 0000.0001) %MON trcstat_ptracer0T_min        =  -3.2653139925532832E-14
(PID.TID 0000.0001) %MON trcstat_ptracer0T_mean       =   4.3363833646262398E-11
(PID.TID 0000.0001) %MON trcstat_ptracer0T_sd         =   3.1393523043454517E-10
(PID.TID 0000.0001) %MON trcstat_ptracer0T_del2       =   1.6092765945225247E-12
(PID.TID 0000.0001) %MON trcstat_ptracer0U_max        =   1.9573506134915734E-08
(PID.TID 0000.0001) %MON trcstat_ptracer0U_min        =  -2.3627765873878860E-14
(PID.TID 0000.0001) %MON trcstat_ptracer0U_mean       =   4.2379963292302608E-11
(PID.TID 0000.0001) %MON trcstat_ptracer0U_sd         =   3.0597188938275883E-10
(PID.TID 0000.0001) %MON trcstat_ptracer0U_del2       =   1.5673086947863674E-12
(PID.TID 0000.0001) %MON trcstat_ptracer0V_max        =   1.9097969820887975E-08
(PID.TID 0000.0001) %MON trcstat_ptracer0V_min        =  -1.1373963964103941E-14
(PID.TID 0000.0001) %MON trcstat_ptracer0V_mean       =   4.1657164861273210E-11
(PID.TID 0000.0001) %MON trcstat_ptracer0V_sd         =   2.9950069593023733E-10
(PID.TID 0000.0001) %MON trcstat_ptracer0V_del2       =   1.5316826314176237E-12
(PID.TID 0000.0001) %MON trcstat_ptracer0W_max        =   1.8584736320381629E-08
(PID.TID 0000.0001) %MON trcstat_ptracer0W_min        =   5.6735182175224848E-15
(PID.TID 0000.0001) %MON trcstat_ptracer0W_mean       =   4.1132837315040758E-11
(PID.TID 0000.0001) %MON trcstat_ptracer0W_sd         =   2.9397893122575820E-10
(PID.TID 0000.0001) %MON trcstat_ptracer0W_del2       =   1.4996375551319861E-12
(PID.TID 0000.0001) %MON trcstat_ptracer0X_max        =   1.8002077457127214E-08
(PID.TID 0000.0001) %MON trcstat_ptracer0X_min        =   2.9778874741925349E-14
(PID.TID 0000.0001) %MON trcstat_ptracer0X_mean       =   4.0756768570760160E-11
(PID.TID 0000.0001) %MON trcstat_ptracer0X_sd         =   2.8895274620192724E-10
(PID.TID 0000.0001) %MON trcstat_ptracer0X_del2       =   1.4689298793816628E-12
(PID.TID 0000.0001) %MON trcstat_ptracer0Y_max        =   1.7315691897761689E-08
(PID.TID 0000.0001) %MON trcstat_ptracer0Y_min        =   6.5032972115926868E-14
(PID.TID 0000.0001) %MON trcstat_ptracer0Y_mean       =   4.0489193705856468E-11
(PID.TID 0000.0001) %MON trcstat_ptracer0Y_sd         =   2.8403797589590315E-10
(PID.TID 0000.0001) %MON trcstat_ptracer0Y_del2       =   1.4376191789524594E-12
(PID.TID 0000.0001) %MON trcstat_ptracer0Z_max        =   1.7199738030362231E-08
(PID.TID 0000.0001) %MON trcstat_ptracer0Z_min        =   1.1789820199576874E-13
(PID.TID 0000.0001) %MON trcstat_ptracer0Z_mean       =   4.0300262833052925E-11
(PID.TID 0000.0001) %MON trcstat_ptracer0Z_sd         =   2.7891481329901279E-10
(PID.TID 0000.0001) %MON trcstat_ptracer0Z_del2       =   1.4043243370440241E-12
(PID.TID 0000.0001) %MON trcstat_ptracer1a_max        =   1.7134404713107757E-08
(PID.TID 0000.0001) %MON trcstat_ptracer1a_min        =   1.8568423772620744E-13
(PID.TID 0000.0001) %MON trcstat_ptracer1a_mean       =   4.0167946610206665E-11
(PID.TID 0000.0001) %MON trcstat_ptracer1a_sd         =   2.7332259116703795E-10
(PID.TID 0000.0001) %MON trcstat_ptracer1a_del2       =   1.3684357818149795E-12
(PID.TID 0000.0001) %MON trcstat_ptracer1b_max        =   2.1429826493727175E-08
(PID.TID 0000.0001) %MON trcstat_ptracer1b_min        =  -9.6986252142979630E-14
(PID.TID 0000.0001) %MON trcstat_ptracer1b_mean       =   4.0381723316246399E-11
(PID.TID 0000.0001) %MON trcstat_ptracer1b_sd         =   3.0232243075694240E-10
(PID.TID 0000.0001) %MON trcstat_ptracer1b_del2       =   1.6026098093050434E-12
(PID.TID 0000.0001) %MON trcstat_ptracer1c_max        =   2.1338888114266353E-08
(PID.TID 0000.0001) %MON trcstat_ptracer1c_min        =  -9.6985563522196342E-14
(PID.TID 0000.0001) %MON trcstat_ptracer1c_mean       =   4.0369384610796334E-11
(PID.TID 0000.0001) %MON trcstat_ptracer1c_sd         =   3.0191492868560591E-10
(PID.TID 0000.0001) %MON trcstat_ptracer1c_del2       =   1.5978365167381180E-12
(PID.TID 0000.0001) %MON trcstat_ptracer1d_max        =   2.1257490735811559E-08
(PID.TID 0000.0001) %MON trcstat_ptracer1d_min        =  -9.6984947190577454E-14
(PID.TID 0000.0001) %MON trcstat_ptracer1d_mean       =   4.0358340914479214E-11
(PID.TID 0000.0001) %MON trcstat_ptracer1d_sd         =   3.0155215845226702E-10
(PID.TID 0000.0001) %MON trcstat_ptracer1d_del2       =   1.5935934140249057E-12
(PID.TID 0000.0001) %MON trcstat_ptracer1e_max        =   2.1184633785396000E-08
(PID.TID 0000.0001) %MON trcstat_ptracer1e_min        =  -9.6984395559325345E-14
(PID.TID 0000.0001) %MON trcstat_ptracer1e_mean       =   4.0348456307736781E-11
(PID.TID 0000.0001) %MON trcstat_ptracer1e_sd         =   3.0122904156936363E-10
(PID.TID 0000.0001) %MON trcstat_ptracer1e_del2       =   1.5898194270659054E-12
(PID.TID 0000.0001) %MON trcstat_ptracer1f_max        =   2.1119421542095353E-08
(PID.TID 0000.0001) %MON trcstat_ptracer1f_min        =  -9.6983901836325156E-14
(PID.TID 0000.0001) %MON trcstat_ptracer1f_mean       =   4.0339609140819454E-11
(PID.TID 0000.0001) %MON trcstat_ptracer1f_sd         =   3.0094110852294388E-10
(PID.TID 0000.0001) %MON trcstat_ptracer1f_del2       =   1.5864607069282987E-12
(PID.TID 0000.0001) %MON trcstat_ptracer1g_max        =   2.1061052162504673E-08
(PID.TID 0000.0001) %MON trcstat_ptracer1g_min        =  -9.6983459942502531E-14
(PID.TID 0000.0001) %MON trcstat_ptracer1g_mean       =   4.0331690534318814E-11
(PID.TID 0000.0001) %MON trcstat_ptracer1g_sd         =   3.0068442226747513E-10
(PID.TID 0000.0001) %MON trcstat_ptracer1g_del2       =   1.5834698429505130E-12
(PID.TID 0000.0001) %MON trcstat_ptracer1h_max        =   2.1008807852995948E-08
(PID.TID 0000.0001) %MON trcstat_ptracer1h_min        =  -9.6983064436966411E-14
(PID.TID 0000.0001) %MON trcstat_ptracer1h_mean       =   4.0324603037019516E-11
(PID.TID 0000.0001) %MON trcstat_ptracer1h_sd         =   3.0045550123077540E-10
(PID.TID 0000.0001) %MON trcstat_ptracer1h_del2       =   1.5808052511216732E-12
(PID.TID 0000.0001) %MON trcstat_ptracer1i_max        =   2.0962046069093722E-08
(PID.TID 0000.0001) %MON trcstat_ptracer1i_min        =  -9.6982710450007191E-14
(PID.TID 0000.0001) %MON trcstat_ptracer1i_mean       =   4.0318259425835390E-11
(PID.TID 0000.0001) %MON trcstat_ptracer1i_sd         =   3.0025126893754507E-10
(PID.TID 0000.0001) %MON trcstat_ptracer1i_del2       =   1.5784302836365323E-12
(PID.TID 0000.0001) %MON trcstat_ptracer1j_max        =   2.0920191634816869E-08
(PID.TID 0000.0001) %MON trcstat_ptracer1j_min        =  -9.6982393623133686E-14
(PID.TID 0000.0001) %MON trcstat_ptracer1j_mean       =   4.0312581631497950E-11
(PID.TID 0000.0001) %MON trcstat_ptracer1j_sd         =   3.0006900372430515E-10
(PID.TID 0000.0001) %MON trcstat_ptracer1j_del2       =   1.5763126025713504E-12
(PID.TID 0000.0001) %MON trcstat_ptracer1k_max        =   2.0882729686016215E-08
(PID.TID 0000.0001) %MON trcstat_ptracer1k_min        =  -9.6982110055402351E-14
(PID.TID 0000.0001) %MON trcstat_ptracer1k_mean       =   4.0307499777083367E-11
(PID.TID 0000.0001) %MON trcstat_ptracer1k_sd         =   2.9990629523798864E-10
(PID.TID 0000.0001) %MON trcstat_ptracer1k_del2       =   1.5744236393058011E-12
(PID.TID 0000.0001) %MON trcstat_ptracer1l_max        =   2.0849199351739922E-08
(PID.TID 0000.0001) %MON trcstat_ptracer1l_min        =  -9.6981856255385489E-14
(PID.TID 0000.0001) %MON trcstat_ptracer1l_mean       =   4.0302951318540846E-11
(PID.TID 0000.0001) %MON trcstat_ptracer1l_sd         =   2.9976100673574462E-10
(PID.TID 0000.0001) %MON trcstat_ptracer1l_del2       =   1.5727381271671166E-12
(PID.TID 0000.0001) %MON trcstat_ptracer1m_max        =   2.0819188096611198E-08
(PID.TID 0000.0001) %MON trcstat_ptracer1m_min        =  -9.6981629098176880E-14
(PID.TID 0000.0001) %MON trcstat_ptracer1m_mean       =   4.0298880275141099E-11
(PID.TID 0000.0001) %MON trcstat_ptracer1m_sd         =   2.9963124231688603E-10
(PID.TID 0000.0001) %MON trcstat_ptracer1m_del2       =   1.5712336965964588E-12
(PID.TID 0000.0001) %MON trcstat_ptracer1n_max        =   2.0792326655221598E-08
(PID.TID 0000.0001) %MON trcstat_ptracer1n_min        =  -9.6981425786915760E-14
(PID.TID 0000.0001) %MON trcstat_ptracer1n_mean       =   4.0295236540742283E-11
(PID.TID 0000.0001) %MON trcstat_ptracer1n_sd         =   2.9951531838608920E-10
(PID.TID 0000.0001) %MON trcstat_ptracer1n_del2       =   1.5698905238220320E-12
(PID.TID 0000.0001) %MON trcstat_ptracer1o_max        =   2.0768284496724591E-08
(PID.TID 0000.0001) %MON trcstat_ptracer1o_min        =  -9.6981243818348568E-14
(PID.TID 0000.0001) %MON trcstat_ptracer1o_mean       =   4.0291975267360303E-11
(PID.TID 0000.0001) %MON trcstat_ptracer1o_sd         =   2.9941173874990717E-10
(PID.TID 0000.0001) %MON trcstat_ptracer1o_del2       =   1.5686910253896136E-12
(PID.TID 0000.0001) %MON trcstat_ptracer1p_max        =   2.0746765764250622E-08
(PID.TID 0000.0001) %MON trcstat_ptracer1p_min        =  -9.6981080952006139E-14
(PID.TID 0000.0001) %MON trcstat_ptracer1p_mean       =   4.0289056313438931E-11
(PID.TID 0000.0001) %MON trcstat_ptracer1p_sd         =   2.9931917284095557E-10
(PID.TID 0000.0001) %MON trcstat_ptracer1p_del2       =   1.5676195920659601E-12
(PID.TID 0000.0001) %MON trcstat_ptracer1q_max        =   2.0727505639531263E-08
(PID.TID 0000.0001) %MON trcstat_ptracer1q_min        =  -9.6980935182615906E-14
(PID.TID 0000.0001) %MON trcstat_ptracer1q_mean       =   4.0286443750016965E-11
(PID.TID 0000.0001) %MON trcstat_ptracer1q_sd         =   2.9923643664130489E-10
(PID.TID 0000.0001) %MON trcstat_ptracer1q_del2       =   1.5666623566063548E-12
(PID.TID 0000.0001) %MON trcstat_ptracer1r_max        =   2.0710267088288769E-08
(PID.TID 0000.0001) %MON trcstat_ptracer1r_min        =  -9.6980804715413387E-14
(PID.TID 0000.0001) %MON trcstat_ptracer1r_mean       =   4.0284105418710121E-11
(PID.TID 0000.0001) %MON trcstat_ptracer1r_sd         =   2.9916247594086991E-10
(PID.TID 0000.0001) %MON trcstat_ptracer1r_del2       =   1.5658069907226678E-12
(PID.TID 0000.0001) %MON trcstat_ptracer1s_max        =   2.0694837946579150E-08
(PID.TID 0000.0001) %MON trcstat_ptracer1s_min        =  -9.6980687944040804E-14
(PID.TID 0000.0001) %MON trcstat_ptracer1s_mean       =   4.0282012536069744E-11
(PID.TID 0000.0001) %MON trcstat_ptracer1s_sd         =   2.9909635162063920E-10
(PID.TID 0000.0001) %MON trcstat_ptracer1s_del2       =   1.5650425272596208E-12
(PID.TID 0000.0001) %MON trcstat_ptracer1t_max        =   2.0681028312427597E-08
(PID.TID 0000.0001) %MON trcstat_ptracer1t_min        =  -9.6980583430770519E-14
(PID.TID 0000.0001) %MON trcstat_ptracer1t_mean       =   4.0280139339450022E-11
(PID.TID 0000.0001) %MON trcstat_ptracer1t_sd         =   2.9903722669572850E-10
(PID.TID 0000.0001) %MON trcstat_ptracer1t_del2       =   1.5643592041942913E-12
(PID.TID 0000.0001) %MON trcstat_ptracer1u_max        =   2.0668668210815438E-08
(PID.TID 0000.0001) %MON trcstat_ptracer1u_min        =  -9.6980489888802388E-14
(PID.TID 0000.0001) %MON trcstat_ptracer1u_mean       =   4.0278462770026096E-11
(PID.TID 0000.0001) %MON trcstat_ptracer1u_sd         =   2.9898435489141129E-10
(PID.TID 0000.0001) %MON trcstat_ptracer1u_del2       =   1.5637483275596354E-12
(PID.TID 0000.0001) %MON trcstat_ptracer1v_max        =   2.0657605503410807E-08
(PID.TID 0000.0001) %MON trcstat_ptracer1v_min        =  -9.6980406166418447E-14
(PID.TID 0000.0001) %MON trcstat_ptracer1v_mean       =   4.0276962189069642E-11
(PID.TID 0000.0001) %MON trcstat_ptracer1v_sd         =   2.9893707055639681E-10
(PID.TID 0000.0001) %MON trcstat_ptracer1v_del2       =   1.5632021508366377E-12
(PID.TID 0000.0001) %MON trcstat_ptracer1w_max        =   2.0647704017422603E-08
(PID.TID 0000.0001) %MON trcstat_ptracer1w_min        =  -9.6980331232804558E-14
(PID.TID 0000.0001) %MON trcstat_ptracer1w_mean       =   4.0275619123988693E-11
(PID.TID 0000.0001) %MON trcstat_ptracer1w_sd         =   2.9889477974782885E-10
(PID.TID 0000.0001) %MON trcstat_ptracer1w_del2       =   1.5627137686372513E-12
(PID.TID 0000.0001) %MON trcstat_ptracer1x_max        =   2.0638841870632995E-08
(PID.TID 0000.0001) %MON trcstat_ptracer1x_min        =  -9.6980264165356135E-14
(PID.TID 0000.0001) %MON trcstat_ptracer1x_mean       =   4.0274417041230647E-11
(PID.TID 0000.0001) %MON trcstat_ptracer1x_sd         =   2.9885695138875917E-10
(PID.TID 0000.0001) %MON trcstat_ptracer1x_del2       =   1.5622770052536625E-12
(PID.TID 0000.0001) %MON trcstat_ptracer1y_max        =   2.0630909972061934E-08
(PID.TID 0000.0001) %MON trcstat_ptracer1y_min        =  -9.6980204138319927E-14
(PID.TID 0000.0001) %MON trcstat_ptracer1y_mean       =   4.0273341142184486E-11
(PID.TID 0000.0001) %MON trcstat_ptracer1y_sd         =   2.9882311303757436E-10
(PID.TID 0000.0001) %MON trcstat_ptracer1y_del2       =   1.5618863829918566E-12
(PID.TID 0000.0001) %MON trcstat_ptracer1z_max        =   2.0623810679864793E-08
(PID.TID 0000.0001) %MON trcstat_ptracer1z_min        =  -9.6980150412627585E-14
(PID.TID 0000.0001) %MON trcstat_ptracer1z_mean       =   4.0272378181842626E-11
(PID.TID 0000.0001) %MON trcstat_ptracer1z_sd         =   2.9879284054903342E-10
(PID.TID 0000.0001) %MON trcstat_ptracer1z_del2       =   1.5615370005273877E-12
(PID.TID 0000.0001) %MON trcstat_ptracer1A_max        =   2.0617456599988537E-08
(PID.TID 0000.0001) %MON trcstat_ptracer1A_min        =  -9.6980102326793482E-14
(PID.TID 0000.0001) %MON trcstat_ptracer1A_mean       =   4.0271516305139040E-11
(PID.TID 0000.0001) %MON trcstat_ptracer1A_sd         =   2.9876575731768594E-10
(PID.TID 0000.0001) %MON trcstat_ptracer1A_del2       =   1.5612244829472618E-12
(PID.TID 0000.0001) %MON trcstat_ptracer1B_max        =   2.0611769510835180E-08
(PID.TID 0000.0001) %MON trcstat_ptracer1B_min        =  -9.6980059288772054E-14
(PID.TID 0000.0001) %MON trcstat_ptracer1B_mean       =   4.0270744901328659E-11
(PID.TID 0000.0001) %MON trcstat_ptracer1B_sd         =   2.9874152701068144E-10
(PID.TID 0000.0001) %MON trcstat_ptracer1B_del2       =   1.5609449241179729E-12
(PID.TID 0000.0001) %MON trcstat_ptracer1C_max        =   2.0606679400725369E-08
(PID.TID 0000.0001) %MON trcstat_ptracer1C_min        =  -9.6980020768669162E-14
(PID.TID 0000.0001) %MON trcstat_ptracer1C_mean       =   4.0270054473525506E-11
(PID.TID 0000.0001) %MON trcstat_ptracer1C_sd         =   2.9871984818210944E-10
(PID.TID 0000.0001) %MON trcstat_ptracer1C_del2       =   1.5606948339757999E-12
(PID.TID 0000.0001) %MON trcstat_ptracer1D_max        =   2.0602123606336876E-08
(PID.TID 0000.0001) %MON trcstat_ptracer1D_min        =  -9.6979986292215104E-14
(PID.TID 0000.0001) %MON trcstat_ptracer1D_mean       =   4.0269436521680961E-11
(PID.TID 0000.0001) %MON trcstat_ptracer1D_sd         =   2.9870045142155848E-10
(PID.TID 0000.0001) %MON trcstat_ptracer1D_del2       =   1.5604710947767968E-12
(PID.TID 0000.0001) %MON trcstat_ptracer1E_max        =   2.0598046041531549E-08
(PID.TID 0000.0001) %MON trcstat_ptracer1E_min        =  -9.6979955434927248E-14
(PID.TID 0000.0001) %MON trcstat_ptracer1E_mean       =   4.0268883437960516E-11
(PID.TID 0000.0001) %MON trcstat_ptracer1E_sd         =   2.9868309590819120E-10
(PID.TID 0000.0001) %MON trcstat_ptracer1E_del2       =   1.5602709209628958E-12
(PID.TID 0000.0001) %MON trcstat_ptracer1F_max        =   5.4363209012169393E-03
(PID.TID 0000.0001) %MON trcstat_ptracer1F_min        =  -2.3832507084373207E-08
(PID.TID 0000.0001) %MON trcstat_ptracer1F_mean       =   1.0674950926867385E-05
(PID.TID 0000.0001) %MON trcstat_ptracer1F_sd         =   7.8453291146428177E-05
(PID.TID 0000.0001) %MON trcstat_ptracer1F_del2       =   4.1306487835973821E-07
(PID.TID 0000.0001) %MON trcstat_ptracer1G_max        =   5.3816902662012136E-03
(PID.TID 0000.0001) %MON trcstat_ptracer1G_min        =  -2.3407338991873034E-08
(PID.TID 0000.0001) %MON trcstat_ptracer1G_mean       =   1.0645240715995191E-05
(PID.TID 0000.0001) %MON trcstat_ptracer1G_sd         =   7.8098340011558971E-05
(PID.TID 0000.0001) %MON trcstat_ptracer1G_del2       =   4.0774072352496365E-07
(PID.TID 0000.0001) %MON trcstat_ptracer1H_max        =   5.3486433230308297E-03
(PID.TID 0000.0001) %MON trcstat_ptracer1H_min        =  -2.3101877843414099E-08
(PID.TID 0000.0001) %MON trcstat_ptracer1H_mean       =   1.0921828005054126E-05
(PID.TID 0000.0001) %MON trcstat_ptracer1H_sd         =   7.9751654410032893E-05
(PID.TID 0000.0001) %MON trcstat_ptracer1H_del2       =   4.1281317155539761E-07
(PID.TID 0000.0001) %MON trcstat_ptracer1I_max        =   5.2551649185261159E-03
(PID.TID 0000.0001) %MON trcstat_ptracer1I_min        =  -2.2804229126463416E-08
(PID.TID 0000.0001) %MON trcstat_ptracer1I_mean       =   1.0674097365919319E-05
(PID.TID 0000.0001) %MON trcstat_ptracer1I_sd         =   7.8145527518131477E-05
(PID.TID 0000.0001) %MON trcstat_ptracer1I_del2       =   4.0502122973035725E-07
(PID.TID 0000.0001) %MON trcstat_ptracer1J_max        =   5.1591822899049360E-03
(PID.TID 0000.0001) %MON trcstat_ptracer1J_min        =  -2.2416255401024019E-08
(PID.TID 0000.0001) %MON trcstat_ptracer1J_mean       =   1.0494260116684700E-05
(PID.TID 0000.0001) %MON trcstat_ptracer1J_sd         =   7.6858756551133740E-05
(PID.TID 0000.0001) %MON trcstat_ptracer1J_del2       =   3.9817205045572495E-07
(PID.TID 0000.0001) %MON trcstat_ptracer1K_max        =   5.0846323127502627E-03
(PID.TID 0000.0001) %MON trcstat_ptracer1K_min        =  -2.1984659162989132E-08
(PID.TID 0000.0001) %MON trcstat_ptracer1K_mean       =   1.0654846869371833E-05
(PID.TID 0000.0001) %MON trcstat_ptracer1K_sd         =   7.7783382835544635E-05
(PID.TID 0000.0001) %MON trcstat_ptracer1K_del2       =   4.0116914407240644E-07
(PID.TID 0000.0001) %MON trcstat_ptracer1L_max        =   4.9857959697543553E-03
(PID.TID 0000.0001) %MON trcstat_ptracer1L_min        =  -2.1466163795307137E-08
(PID.TID 0000.0001) %MON trcstat_ptracer1L_mean       =   1.0380611095732723E-05
(PID.TID 0000.0001) %MON trcstat_ptracer1L_sd         =   7.5904156492493806E-05
(PID.TID 0000.0001) %MON trcstat_ptracer1L_del2       =   3.9146463523585841E-07
(PID.TID 0000.0001) %MON trcstat_ptracer1M_max        =   4.8929929087599029E-03
(PID.TID 0000.0001) %MON trcstat_ptracer1M_min        =  -2.0857386906904307E-08
(PID.TID 0000.0001) %MON trcstat_ptracer1M_mean       =   1.0147921507132643E-05
(PID.TID 0000.0001) %MON trcstat_ptracer1M_sd         =   7.4291545232070915E-05
(PID.TID 0000.0001) %MON trcstat_ptracer1M_del2       =   3.8300915166030986E-07
(PID.TID 0000.0001) %MON trcstat_ptracer1N_max        =   4.8094328718757831E-03
(PID.TID 0000.0001) %MON trcstat_ptracer1N_min        =  -2.0094684581407932E-08
(PID.TID 0000.0001) %MON trcstat_ptracer1N_mean       =   9.9536462674144982E-06
(PID.TID 0000.0001) %MON trcstat_ptracer1N_sd         =   7.2929073651161768E-05
(PID.TID 0000.0001) %MON trcstat_ptracer1N_del2       =   3.7579783302269762E-07
(PID.TID 0000.0001) %MON trcstat_ptracer1O_max        =   4.7387674193185353E-03
(PID.TID 0000.0001) %MON trcstat_ptracer1O_min        =  -1.9133919862530813E-08
(PID.TID 0000.0001) %MON trcstat_ptracer1O_mean       =   9.7968328234120224E-06
(PID.TID 0000.0001) %MON trcstat_ptracer1O_sd         =   7.1821903562237674E-05
(PID.TID 0000.0001) %MON trcstat_ptracer1O_del2       =   3.7007021754523683E-07
(PID.TID 0000.0001) %MON trcstat_ptracer1P_max        =   4.7025760280634465E-03
(PID.TID 0000.0001) %MON trcstat_ptracer1P_min        =  -1.7896594319755422E-08
(PID.TID 0000.0001) %MON trcstat_ptracer1P_mean       =   9.8404246557349019E-06
(PID.TID 0000.0001) %MON trcstat_ptracer1P_sd         =   7.2083384392686878E-05
(PID.TID 0000.0001) %MON trcstat_ptracer1P_del2       =   3.7127657251028333E-07
(PID.TID 0000.0001) %MON trcstat_ptracer1Q_max        =   4.6943856642415157E-03
(PID.TID 0000.0001) %MON trcstat_ptracer1Q_min        =  -1.6257944500419933E-08
(PID.TID 0000.0001) %MON trcstat_ptracer1Q_mean       =   9.7120601859291261E-06
(PID.TID 0000.0001) %MON trcstat_ptracer1Q_sd         =   7.1202868773326039E-05
(PID.TID 0000.0001) %MON trcstat_ptracer1Q_del2       =   3.6733461573570408E-07
(PID.TID 0000.0001) %MON trcstat_ptracer1R_max        =   4.6836736294865221E-03
(PID.TID 0000.0001) %MON trcstat_ptracer1R_min        =  -1.4090591786642300E-08
(PID.TID 0000.0001) %MON trcstat_ptracer1R_mean       =   9.6253923353222097E-06
(PID.TID 0000.0001) %MON trcstat_ptracer1R_sd         =   7.0590307356684917E-05
(PID.TID 0000.0001) %MON trcstat_ptracer1R_del2       =   3.6451909201191423E-07
(PID.TID 0000.0001) %MON trcstat_ptracer1S_max        =   4.6696675001410212E-03
(PID.TID 0000.0001) %MON trcstat_ptracer1S_min        =  -1.1427983443715425E-08
(PID.TID 0000.0001) %MON trcstat_ptracer1S_mean       =   9.5718111022421915E-06
(PID.TID 0000.0001) %MON trcstat_ptracer1S_sd         =   7.0177618246552954E-05
(PID.TID 0000.0001) %MON trcstat_ptracer1S_del2       =   3.6246050337806511E-07
(PID.TID 0000.0001) %MON trcstat_ptracer1T_max        =   4.6513668263994156E-03
(PID.TID 0000.0001) %MON trcstat_ptracer1T_min        =  -1.0826270081891662E-08
(PID.TID 0000.0001) %MON trcstat_ptracer1T_mean       =   9.5427812949487384E-06
(PID.TID 0000.0001) %MON trcstat_ptracer1T_sd         =   6.9898528676549601E-05
(PID.TID 0000.0001) %MON trcstat_ptracer1T_del2       =   3.6088533648709685E-07
(PID.TID 0000.0001) %MON trcstat_ptracer1U_max        =   4.6274762784226046E-03
(PID.TID 0000.0001) %MON trcstat_ptracer1U_min        =  -1.0020005541494992E-08
(PID.TID 0000.0001) %MON trcstat_ptracer1U_mean       =   9.5290891658240635E-06
(PID.TID 0000.0001) %MON trcstat_ptracer1U_sd         =   6.9682660945407821E-05
(PID.TID 0000.0001) %MON trcstat_ptracer1U_del2       =   3.5947188447819307E-07
(PID.TID 0000.0001) %MON trcstat_ptracer1V_max        =   4.5963251749009297E-03
(PID.TID 0000.0001) %MON trcstat_ptracer1V_min        =  -8.9327128978665134E-09
(PID.TID 0000.0001) %MON trcstat_ptracer1V_mean       =   9.5226937576398601E-06
(PID.TID 0000.0001) %MON trcstat_ptracer1V_sd         =   6.9473440353298548E-05
(PID.TID 0000.0001) %MON trcstat_ptracer1V_del2       =   3.5796867476605356E-07
(PID.TID 0000.0001) %MON trcstat_ptracer1W_max        =   4.5557697552088784E-03
(PID.TID 0000.0001) %MON trcstat_ptracer1W_min        =  -7.4545907507442812E-09
(PID.TID 0000.0001) %MON trcstat_ptracer1W_mean       =   9.5192424717268583E-06
(PID.TID 0000.0001) %MON trcstat_ptracer1W_sd         =   6.9234674034207187E-05
(PID.TID 0000.0001) %MON trcstat_ptracer1W_del2       =   3.5619532692668159E-07
(PID.TID 0000.0001) %MON trcstat_ptracer1X_max        =   4.5030781190624862E-03
(PID.TID 0000.0001) %MON trcstat_ptracer1X_min        =  -5.4249370244623582E-09
(PID.TID 0000.0001) %MON trcstat_ptracer1X_mean       =   9.5175636213368127E-06
(PID.TID 0000.0001) %MON trcstat_ptracer1X_sd         =   6.8944630336465704E-05
(PID.TID 0000.0001) %MON trcstat_ptracer1X_del2       =   3.5401398625190446E-07
(PID.TID 0000.0001) %MON trcstat_ptracer1Y_max        =   4.4348012053937250E-03
(PID.TID 0000.0001) %MON trcstat_ptracer1Y_min        =  -2.5938048723576879E-09
(PID.TID 0000.0001) %MON trcstat_ptracer1Y_mean       =   9.5168802517477420E-06
(PID.TID 0000.0001) %MON trcstat_ptracer1Y_sd         =   6.8580973613631906E-05
(PID.TID 0000.0001) %MON trcstat_ptracer1Y_del2       =   3.5127842598216801E-07
(PID.TID 0000.0001) %MON trcstat_ptracer1Z_max        =   4.3466398075600035E-03
(PID.TID 0000.0001) %MON trcstat_ptracer1Z_min        =   1.4054183490799121E-09
(PID.TID 0000.0001) %MON trcstat_ptracer1Z_mean       =   9.5167801810598065E-06
(PID.TID 0000.0001) %MON trcstat_ptracer1Z_sd         =   6.8120445641284893E-05
(PID.TID 0000.0001) %MON trcstat_ptracer1Z_del2       =   3.4783708063039195E-07
(PID.TID 0000.0001) %MON trcstat_ptracer2a_max        =   4.2333294679738056E-03
(PID.TID 0000.0001) %MON trcstat_ptracer2a_min        =   7.0805673793051058E-09
(PID.TID 0000.0001) %MON trcstat_ptracer2a_mean       =   9.5169479813875080E-06
(PID.TID 0000.0001) %MON trcstat_ptracer2a_sd         =   6.7537311388628791E-05
(PID.TID 0000.0001) %MON trcstat_ptracer2a_del2       =   3.4354570398856671E-07
(PID.TID 0000.0001) %MON trcstat_ptracer2b_max        =   4.0885850719870236E-03
(PID.TID 0000.0001) %MON trcstat_ptracer2b_min        =   1.5436287278777799E-08
(PID.TID 0000.0001) %MON trcstat_ptracer2b_mean       =   9.5171895339711090E-06
(PID.TID 0000.0001) %MON trcstat_ptracer2b_sd         =   6.6803998593383253E-05
(PID.TID 0000.0001) %MON trcstat_ptracer2b_del2       =   3.3824687327032483E-07
(PID.TID 0000.0001) %MON trcstat_ptracer2c_max        =   4.0742811298644811E-03
(PID.TID 0000.0001) %MON trcstat_ptracer2c_min        =   2.8010720903109326E-08
(PID.TID 0000.0001) %MON trcstat_ptracer2c_mean       =   9.5175024904365712E-06
(PID.TID 0000.0001) %MON trcstat_ptracer2c_sd         =   6.5892721442656224E-05
(PID.TID 0000.0001) %MON trcstat_ptracer2c_del2       =   3.3184424980019488E-07
(PID.TID 0000.0001) %MON trcstat_ptracer2d_max        =   4.0678623451260599E-03
(PID.TID 0000.0001) %MON trcstat_ptracer2d_min        =   4.4091941407075087E-08
(PID.TID 0000.0001) %MON trcstat_ptracer2d_mean       =   9.5179065788519981E-06
(PID.TID 0000.0001) %MON trcstat_ptracer2d_sd         =   6.4777102710319315E-05
(PID.TID 0000.0001) %MON trcstat_ptracer2d_del2       =   3.2436593229329119E-07
(PID.TID 0000.0001) // =======================================================
(PID.TID 0000.0001) // End MONITOR ptracers field statistics
(PID.TID 0000.0001) // =======================================================
 Computing Diagnostic #    224  TRAC01       Counter:       1   Parms: SMR     MR      
 Computing Diagnostic #    236  TRAC02       Counter:       1   Parms: SMR     MR      
 Computing Diagnostic #    248  TRAC03       Counter:       1   Parms: SMR     MR      
 Computing Diagnostic #    260  TRAC04       Counter:       1   Parms: SMR     MR      
 Computing Diagnostic #    272  TRAC05       Counter:       1   Parms: SMR     MR      
 Computing Diagnostic #    284  TRAC06       Counter:       1   Parms: SMR     MR      
 Computing Diagnostic #    296  TRAC07       Counter:       1   Parms: SMR     MR      
 Computing Diagnostic #    308  TRAC08       Counter:       1   Parms: SMR     MR      
 Computing Diagnostic #    320  TRAC09       Counter:       1   Parms: SMR     MR      
 Computing Diagnostic #    332  TRAC10       Counter:       1   Parms: SMR     MR      
 Computing Diagnostic #    344  TRAC11       Counter:       1   Parms: SMR     MR      
 Computing Diagnostic #    356  TRAC12       Counter:       1   Parms: SMR     MR      
 Computing Diagnostic #    368  TRAC13       Counter:       1   Parms: SMR     MR      
 Computing Diagnostic #    380  TRAC14       Counter:       1   Parms: SMR     MR      
 Computing Diagnostic #    392  TRAC15       Counter:       1   Parms: SMR     MR      
 Computing Diagnostic #    404  TRAC16       Counter:       1   Parms: SMR     MR      
 Computing Diagnostic #    416  TRAC17       Counter:       1   Parms: SMR     MR      
 Computing Diagnostic #    428  TRAC18       Counter:       1   Parms: SMR     MR      
 Computing Diagnostic #    440  TRAC19       Counter:       1   Parms: SMR     MR      
 Computing Diagnostic #    452  TRAC20       Counter:       1   Parms: SMR     MR      
 Computing Diagnostic #    464  TRAC21       Counter:       1   Parms: SMR     MR      
 Computing Diagnostic #    476  TRAC22       Counter:       1   Parms: SMR     MR      
 Computing Diagnostic #    488  TRAC23       Counter:       1   Parms: SMR     MR      
 Computing Diagnostic #    500  TRAC24       Counter:       1   Parms: SMR     MR      
 Computing Diagnostic #    512  TRAC25       Counter:       1   Parms: SMR     MR      
 Computing Diagnostic #    524  TRAC26       Counter:       1   Parms: SMR     MR      
 Computing Diagnostic #    536  TRAC27       Counter:       1   Parms: SMR     MR      
 Computing Diagnostic #    548  TRAC28       Counter:       1   Parms: SMR     MR      
 Computing Diagnostic #    560  TRAC29       Counter:       1   Parms: SMR     MR      
 Computing Diagnostic #    572  TRAC30       Counter:       1   Parms: SMR     MR      
 Computing Diagnostic #    584  TRAC31       Counter:       1   Parms: SMR     MR      
 Computing Diagnostic #    596  TRAC32       Counter:       1   Parms: SMR     MR      
 Computing Diagnostic #    608  TRAC33       Counter:       1   Parms: SMR     MR      
 Computing Diagnostic #    620  TRAC34       Counter:       1   Parms: SMR     MR      
 Computing Diagnostic #    632  TRAC35       Counter:       1   Parms: SMR     MR      
 Computing Diagnostic #    644  TRAC36       Counter:       1   Parms: SMR     MR      
 Computing Diagnostic #    656  TRAC37       Counter:       1   Parms: SMR     MR      
 Computing Diagnostic #    668  TRAC38       Counter:       1   Parms: SMR     MR      
 Computing Diagnostic #    680  TRAC39       Counter:       1   Parms: SMR     MR      
 Computing Diagnostic #    692  TRAC40       Counter:       1   Parms: SMR     MR      
 Computing Diagnostic #    704  TRAC41       Counter:       1   Parms: SMR     MR      
 Computing Diagnostic #    716  TRAC42       Counter:       1   Parms: SMR     MR      
 Computing Diagnostic #    728  TRAC43       Counter:       1   Parms: SMR     MR      
 Computing Diagnostic #    740  TRAC44       Counter:       1   Parms: SMR     MR      
 Computing Diagnostic #    752  TRAC45       Counter:       1   Parms: SMR     MR      
 Computing Diagnostic #    764  TRAC46       Counter:       1   Parms: SMR     MR      
 Computing Diagnostic #    776  TRAC47       Counter:       1   Parms: SMR     MR      
 Computing Diagnostic #    788  TRAC48       Counter:       1   Parms: SMR     MR      
 Computing Diagnostic #    800  TRAC49       Counter:       1   Parms: SMR     MR      
 Computing Diagnostic #    812  TRAC50       Counter:       1   Parms: SMR     MR      
 Computing Diagnostic #    824  TRAC51       Counter:       1   Parms: SMR     MR      
 Computing Diagnostic #    836  TRAC52       Counter:       1   Parms: SMR     MR      
 Computing Diagnostic #    848  TRAC53       Counter:       1   Parms: SMR     MR      
 Computing Diagnostic #    860  TRAC54       Counter:       1   Parms: SMR     MR      
 Computing Diagnostic #    872  TRAC55       Counter:       1   Parms: SMR     MR      
 Computing Diagnostic #    884  TRAC56       Counter:       1   Parms: SMR     MR      
 Computing Diagnostic #    896  TRAC57       Counter:       1   Parms: SMR     MR      
 Computing Diagnostic #    908  TRAC58       Counter:       1   Parms: SMR     MR      
 Computing Diagnostic #    920  TRAC59       Counter:       1   Parms: SMR     MR      
 Computing Diagnostic #    932  TRAC60       Counter:       1   Parms: SMR     MR      
 Computing Diagnostic #    944  TRAC61       Counter:       1   Parms: SMR     MR      
 Computing Diagnostic #    956  TRAC62       Counter:       1   Parms: SMR     MR      
 Computing Diagnostic #    968  TRAC63       Counter:       1   Parms: SMR     MR      
 Computing Diagnostic #    980  TRAC64       Counter:       1   Parms: SMR     MR      
 Computing Diagnostic #    992  TRAC65       Counter:       1   Parms: SMR     MR      
 Computing Diagnostic #   1004  TRAC66       Counter:       1   Parms: SMR     MR      
 Computing Diagnostic #   1016  TRAC67       Counter:       1   Parms: SMR     MR      
 Computing Diagnostic #   1028  TRAC68       Counter:       1   Parms: SMR     MR      
 Computing Diagnostic #   1040  TRAC69       Counter:       1   Parms: SMR     MR      
 Computing Diagnostic #   1052  TRAC70       Counter:       1   Parms: SMR     MR      
 Computing Diagnostic #   1064  TRAC71       Counter:       1   Parms: SMR     MR      
 Computing Diagnostic #   1076  TRAC72       Counter:       1   Parms: SMR     MR      
 Computing Diagnostic #   1088  TRAC73       Counter:       1   Parms: SMR     MR      
 Computing Diagnostic #   1100  TRAC74       Counter:       1   Parms: SMR     MR      
 Computing Diagnostic #   1112  TRAC75       Counter:       1   Parms: SMR     MR      
 Computing Diagnostic #   1124  TRAC76       Counter:       1   Parms: SMR     MR      
 Computing Diagnostic #   1136  TRAC77       Counter:       1   Parms: SMR     MR      
 Computing Diagnostic #   1148  TRAC78       Counter:       1   Parms: SMR     MR      
 Computing Diagnostic #   1160  TRAC79       Counter:       1   Parms: SMR     MR      
 Computing Diagnostic #   1172  TRAC80       Counter:       1   Parms: SMR     MR      
 Computing Diagnostic #   1184  TRAC81       Counter:       1   Parms: SMR     MR      
 Computing Diagnostic #   1196  TRAC82       Counter:       1   Parms: SMR     MR      
 Computing Diagnostic #   1208  TRAC83       Counter:       1   Parms: SMR     MR      
 Computing Diagnostic #   1220  TRAC84       Counter:       1   Parms: SMR     MR      
 Computing Diagnostic #   1232  TRAC85       Counter:       1   Parms: SMR     MR      
 Computing Diagnostic #   1244  TRAC86       Counter:       1   Parms: SMR     MR      
 Computing Diagnostic #   1256  TRAC87       Counter:       1   Parms: SMR     MR      
 Computing Diagnostic #   1268  TRAC88       Counter:       1   Parms: SMR     MR      
 Computing Diagnostic #   1280  TRAC89       Counter:       1   Parms: SMR     MR      
 Computing Diagnostic #   1292  TRAC90       Counter:       1   Parms: SMR     MR      
 Computing Diagnostic #   1304  TRAC91       Counter:       1   Parms: SMR     MR      
 Computing Diagnostic #   1316  TRAC92       Counter:       1   Parms: SMR     MR      
 Computing Diagnostic #   1328  TRAC93       Counter:       1   Parms: SMR     MR      
 Computing Diagnostic #   1340  TRAC94       Counter:       1   Parms: SMR     MR      
 Computing Diagnostic #   1352  TRAC95       Counter:       1   Parms: SMR     MR      
 Computing Diagnostic #   1364  TRAC96       Counter:       1   Parms: SMR     MR      
 Computing Diagnostic #   1376  TRAC97       Counter:       1   Parms: SMR     MR      
 Computing Diagnostic #   1388  TRAC98       Counter:       1   Parms: SMR     MR      
 Computing Diagnostic #   1400  TRAC99       Counter:       1   Parms: SMR     MR      
 Computing Diagnostic #   1412  TRAC0a       Counter:       1   Parms: SMR     MR      
 Computing Diagnostic #   1424  TRAC0b       Counter:       1   Parms: SMR     MR      
 Computing Diagnostic #   1436  TRAC0c       Counter:       1   Parms: SMR     MR      
 Computing Diagnostic #   1448  TRAC0d       Counter:       1   Parms: SMR     MR      
 Computing Diagnostic #   1460  TRAC0e       Counter:       1   Parms: SMR     MR      
 Computing Diagnostic #   1472  TRAC0f       Counter:       1   Parms: SMR     MR      
 Computing Diagnostic #   1484  TRAC0g       Counter:       1   Parms: SMR     MR      
 Computing Diagnostic #   1496  TRAC0h       Counter:       1   Parms: SMR     MR      
 Computing Diagnostic #   1508  TRAC0i       Counter:       1   Parms: SMR     MR      
 Computing Diagnostic #   1520  TRAC0j       Counter:       1   Parms: SMR     MR      
 Computing Diagnostic #   1532  TRAC0k       Counter:       1   Parms: SMR     MR      
 Computing Diagnostic #   1544  TRAC0l       Counter:       1   Parms: SMR     MR      
 Computing Diagnostic #   1556  TRAC0m       Counter:       1   Parms: SMR     MR      
 Computing Diagnostic #   1568  TRAC0n       Counter:       1   Parms: SMR     MR      
 Computing Diagnostic #   1580  TRAC0o       Counter:       1   Parms: SMR     MR      
 Computing Diagnostic #   1592  TRAC0p       Counter:       1   Parms: SMR     MR      
 Computing Diagnostic #   1604  TRAC0q       Counter:       1   Parms: SMR     MR      
 Computing Diagnostic #   1616  TRAC0r       Counter:       1   Parms: SMR     MR      
 Computing Diagnostic #   1628  TRAC0s       Counter:       1   Parms: SMR     MR      
 Computing Diagnostic #   1640  TRAC0t       Counter:       1   Parms: SMR     MR      
 Computing Diagnostic #   1652  TRAC0u       Counter:       1   Parms: SMR     MR      
 Computing Diagnostic #   1664  TRAC0v       Counter:       1   Parms: SMR     MR      
 Computing Diagnostic #   1676  TRAC0w       Counter:       1   Parms: SMR     MR      
 Computing Diagnostic #   1688  TRAC0x       Counter:       1   Parms: SMR     MR      
 Computing Diagnostic #   1700  TRAC0y       Counter:       1   Parms: SMR     MR      
 Computing Diagnostic #   1712  TRAC0z       Counter:       1   Parms: SMR     MR      
 Computing Diagnostic #   1724  TRAC0A       Counter:       1   Parms: SMR     MR      
 Computing Diagnostic #   1736  TRAC0B       Counter:       1   Parms: SMR     MR      
 Computing Diagnostic #   1748  TRAC0C       Counter:       1   Parms: SMR     MR      
 Computing Diagnostic #   1760  TRAC0D       Counter:       1   Parms: SMR     MR      
 Computing Diagnostic #   1772  TRAC0E       Counter:       1   Parms: SMR     MR      
 Computing Diagnostic #   1784  TRAC0F       Counter:       1   Parms: SMR     MR      
 Computing Diagnostic #   1796  TRAC0G       Counter:       1   Parms: SMR     MR      
 Computing Diagnostic #   1808  TRAC0H       Counter:       1   Parms: SMR     MR      
 Computing Diagnostic #   1820  TRAC0I       Counter:       1   Parms: SMR     MR      
 Computing Diagnostic #   1832  TRAC0J       Counter:       1   Parms: SMR     MR      
 Computing Diagnostic #   1844  TRAC0K       Counter:       1   Parms: SMR     MR      
 Computing Diagnostic #   1856  TRAC0L       Counter:       1   Parms: SMR     MR      
 Computing Diagnostic #   1868  TRAC0M       Counter:       1   Parms: SMR     MR      
 Computing Diagnostic #   1880  TRAC0N       Counter:       1   Parms: SMR     MR      
 Computing Diagnostic #   1892  TRAC0O       Counter:       1   Parms: SMR     MR      
 Computing Diagnostic #   1904  TRAC0P       Counter:       1   Parms: SMR     MR      
 Computing Diagnostic #   1916  TRAC0Q       Counter:       1   Parms: SMR     MR      
 Computing Diagnostic #   1928  TRAC0R       Counter:       1   Parms: SMR     MR      
 Computing Diagnostic #   1940  TRAC0S       Counter:       1   Parms: SMR     MR      
 Computing Diagnostic #   1952  TRAC0T       Counter:       1   Parms: SMR     MR      
 Computing Diagnostic #   1964  TRAC0U       Counter:       1   Parms: SMR     MR      
 Computing Diagnostic #   1976  TRAC0V       Counter:       1   Parms: SMR     MR      
 Computing Diagnostic #   1988  TRAC0W       Counter:       1   Parms: SMR     MR      
 Computing Diagnostic #   2000  TRAC0X       Counter:       1   Parms: SMR     MR      
 Computing Diagnostic #   2012  TRAC0Y       Counter:       1   Parms: SMR     MR      
 Computing Diagnostic #   2024  TRAC0Z       Counter:       1   Parms: SMR     MR      
 Computing Diagnostic #   2036  TRAC1a       Counter:       1   Parms: SMR     MR      
 Computing Diagnostic #   2048  TRAC1b       Counter:       1   Parms: SMR     MR      
 Computing Diagnostic #   2060  TRAC1c       Counter:       1   Parms: SMR     MR      
 Computing Diagnostic #   2072  TRAC1d       Counter:       1   Parms: SMR     MR      
 Computing Diagnostic #   2084  TRAC1e       Counter:       1   Parms: SMR     MR      
 Computing Diagnostic #   2096  TRAC1f       Counter:       1   Parms: SMR     MR      
 Computing Diagnostic #   2108  TRAC1g       Counter:       1   Parms: SMR     MR      
 Computing Diagnostic #   2120  TRAC1h       Counter:       1   Parms: SMR     MR      
 Computing Diagnostic #   2132  TRAC1i       Counter:       1   Parms: SMR     MR      
 Computing Diagnostic #   2144  TRAC1j       Counter:       1   Parms: SMR     MR      
 Computing Diagnostic #   2156  TRAC1k       Counter:       1   Parms: SMR     MR      
 Computing Diagnostic #   2168  TRAC1l       Counter:       1   Parms: SMR     MR      
 Computing Diagnostic #   2180  TRAC1m       Counter:       1   Parms: SMR     MR      
 Computing Diagnostic #   2192  TRAC1n       Counter:       1   Parms: SMR     MR      
 Computing Diagnostic #   2204  TRAC1o       Counter:       1   Parms: SMR     MR      
 Computing Diagnostic #   2216  TRAC1p       Counter:       1   Parms: SMR     MR      
 Computing Diagnostic #   2228  TRAC1q       Counter:       1   Parms: SMR     MR      
 Computing Diagnostic #   2240  TRAC1r       Counter:       1   Parms: SMR     MR      
 Computing Diagnostic #   2252  TRAC1s       Counter:       1   Parms: SMR     MR      
 Computing Diagnostic #   2264  TRAC1t       Counter:       1   Parms: SMR     MR      
 Computing Diagnostic #   2276  TRAC1u       Counter:       1   Parms: SMR     MR      
 Computing Diagnostic #   2288  TRAC1v       Counter:       1   Parms: SMR     MR      
 Computing Diagnostic #   2300  TRAC1w       Counter:       1   Parms: SMR     MR      
 Computing Diagnostic #   2312  TRAC1x       Counter:       1   Parms: SMR     MR      
 Computing Diagnostic #   2324  TRAC1y       Counter:       1   Parms: SMR     MR      
 Computing Diagnostic #   2336  TRAC1z       Counter:       1   Parms: SMR     MR      
 Computing Diagnostic #   2348  TRAC1A       Counter:       1   Parms: SMR     MR      
 Computing Diagnostic #   2360  TRAC1B       Counter:       1   Parms: SMR     MR      
 Computing Diagnostic #   2372  TRAC1C       Counter:       1   Parms: SMR     MR      
 Computing Diagnostic #   2384  TRAC1D       Counter:       1   Parms: SMR     MR      
 Computing Diagnostic #   2396  TRAC1E       Counter:       1   Parms: SMR     MR      
 Computing Diagnostic #   2408  TRAC1F       Counter:       1   Parms: SMR     MR      
 Computing Diagnostic #   2420  TRAC1G       Counter:       1   Parms: SMR     MR      
 Computing Diagnostic #   2432  TRAC1H       Counter:       1   Parms: SMR     MR      
 Computing Diagnostic #   2444  TRAC1I       Counter:       1   Parms: SMR     MR      
 Computing Diagnostic #   2456  TRAC1J       Counter:       1   Parms: SMR     MR      
 Computing Diagnostic #   2468  TRAC1K       Counter:       1   Parms: SMR     MR      
 Computing Diagnostic #   2480  TRAC1L       Counter:       1   Parms: SMR     MR      
 Computing Diagnostic #   2492  TRAC1M       Counter:       1   Parms: SMR     MR      
 Computing Diagnostic #   2504  TRAC1N       Counter:       1   Parms: SMR     MR      
 Computing Diagnostic #   2516  TRAC1O       Counter:       1   Parms: SMR     MR      
 Computing Diagnostic #   2528  TRAC1P       Counter:       1   Parms: SMR     MR      
 Computing Diagnostic #   2540  TRAC1Q       Counter:       1   Parms: SMR     MR      
 Computing Diagnostic #   2552  TRAC1R       Counter:       1   Parms: SMR     MR      
 Computing Diagnostic #   2564  TRAC1S       Counter:       1   Parms: SMR     MR      
 Computing Diagnostic #   2576  TRAC1T       Counter:       1   Parms: SMR     MR      
 Computing Diagnostic #   2588  TRAC1U       Counter:       1   Parms: SMR     MR      
 Computing Diagnostic #   2600  TRAC1V       Counter:       1   Parms: SMR     MR      
 Computing Diagnostic #   2612  TRAC1W       Counter:       1   Parms: SMR     MR      
 Computing Diagnostic #   2624  TRAC1X       Counter:       1   Parms: SMR     MR      
 Computing Diagnostic #   2636  TRAC1Y       Counter:       1   Parms: SMR     MR      
 Computing Diagnostic #   2648  TRAC1Z       Counter:       1   Parms: SMR     MR      
 Computing Diagnostic #   2660  TRAC2a       Counter:       1   Parms: SMR     MR      
 Computing Diagnostic #   2672  TRAC2b       Counter:       1   Parms: SMR     MR      
 Computing Diagnostic #   2684  TRAC2c       Counter:       1   Parms: SMR     MR      
 Computing Diagnostic #   2696  TRAC2d       Counter:       1   Parms: SMR     MR      
(PID.TID 0000.0001) // =======================================================
(PID.TID 0000.0001) // Begin MONITOR EXF statistics
(PID.TID 0000.0001) // =======================================================
(PID.TID 0000.0001) %MON exf_tsnumber                 =               5644803
(PID.TID 0000.0001) %MON exf_time_sec                 =   2.4385548960000000E+11
(PID.TID 0000.0001) %MON exf_ustress_max              =   0.0000000000000000E+00
(PID.TID 0000.0001) %MON exf_ustress_min              =   0.0000000000000000E+00
(PID.TID 0000.0001) %MON exf_ustress_mean             =   0.0000000000000000E+00
(PID.TID 0000.0001) %MON exf_ustress_sd               =   0.0000000000000000E+00
(PID.TID 0000.0001) %MON exf_ustress_del2             =   0.0000000000000000E+00
(PID.TID 0000.0001) %MON exf_vstress_max              =   0.0000000000000000E+00
(PID.TID 0000.0001) %MON exf_vstress_min              =   0.0000000000000000E+00
(PID.TID 0000.0001) %MON exf_vstress_mean             =   0.0000000000000000E+00
(PID.TID 0000.0001) %MON exf_vstress_sd               =   0.0000000000000000E+00
(PID.TID 0000.0001) %MON exf_vstress_del2             =   0.0000000000000000E+00
(PID.TID 0000.0001) %MON exf_hflux_max                =   0.0000000000000000E+00
(PID.TID 0000.0001) %MON exf_hflux_min                =   0.0000000000000000E+00
(PID.TID 0000.0001) %MON exf_hflux_mean               =   0.0000000000000000E+00
(PID.TID 0000.0001) %MON exf_hflux_sd                 =   0.0000000000000000E+00
(PID.TID 0000.0001) %MON exf_hflux_del2               =   0.0000000000000000E+00
(PID.TID 0000.0001) %MON exf_sflux_max                =   0.0000000000000000E+00
(PID.TID 0000.0001) %MON exf_sflux_min                =   0.0000000000000000E+00
(PID.TID 0000.0001) %MON exf_sflux_mean               =   0.0000000000000000E+00
(PID.TID 0000.0001) %MON exf_sflux_sd                 =   0.0000000000000000E+00
(PID.TID 0000.0001) %MON exf_sflux_del2               =   0.0000000000000000E+00
(PID.TID 0000.0001) %MON exf_uwind_max                =   0.0000000000000000E+00
(PID.TID 0000.0001) %MON exf_uwind_min                =   0.0000000000000000E+00
(PID.TID 0000.0001) %MON exf_uwind_mean               =   0.0000000000000000E+00
(PID.TID 0000.0001) %MON exf_uwind_sd                 =   0.0000000000000000E+00
(PID.TID 0000.0001) %MON exf_uwind_del2               =   0.0000000000000000E+00
(PID.TID 0000.0001) %MON exf_vwind_max                =   0.0000000000000000E+00
(PID.TID 0000.0001) %MON exf_vwind_min                =   0.0000000000000000E+00
(PID.TID 0000.0001) %MON exf_vwind_mean               =   0.0000000000000000E+00
(PID.TID 0000.0001) %MON exf_vwind_sd                 =   0.0000000000000000E+00
(PID.TID 0000.0001) %MON exf_vwind_del2               =   0.0000000000000000E+00
(PID.TID 0000.0001) %MON exf_wspeed_max               =   0.0000000000000000E+00
(PID.TID 0000.0001) %MON exf_wspeed_min               =   0.0000000000000000E+00
(PID.TID 0000.0001) %MON exf_wspeed_mean              =   0.0000000000000000E+00
(PID.TID 0000.0001) %MON exf_wspeed_sd                =   0.0000000000000000E+00
(PID.TID 0000.0001) %MON exf_wspeed_del2              =   0.0000000000000000E+00
(PID.TID 0000.0001) %MON exf_evap_max                 =   0.0000000000000000E+00
(PID.TID 0000.0001) %MON exf_evap_min                 =   0.0000000000000000E+00
(PID.TID 0000.0001) %MON exf_evap_mean                =   0.0000000000000000E+00
(PID.TID 0000.0001) %MON exf_evap_sd                  =   0.0000000000000000E+00
(PID.TID 0000.0001) %MON exf_evap_del2                =   0.0000000000000000E+00
(PID.TID 0000.0001) // =======================================================
(PID.TID 0000.0001) // End MONITOR EXF statistics
(PID.TID 0000.0001) // =======================================================
 cg2d: Sum(rhs),rhsMax =  -6.04419639671505E-07  7.55583078239745E+00
(PID.TID 0000.0001)      cg2d_init_res =   1.60004607235695E-02
(PID.TID 0000.0001)      cg2d_iters(min,last) =      -1      22
(PID.TID 0000.0001)      cg2d_last_res =   6.78144857410664E-14
(PID.TID 0000.0001) totgC    5.3484516259622028E-04   4.5558071470931090E-22
(PID.TID 0000.0001) totgN    1.5040252338448246E-04   1.2811275840091257E-22
(PID.TID 0000.0001) totgP    0.0000000000000000E+00   0.0000000000000000E+00
(PID.TID 0000.0001) totgFe  -3.7288666436536465E+05  -3.1762458546417506E-13
(PID.TID 0000.0001) totgSi   0.0000000000000000E+00   0.0000000000000000E+00
 fe   0.0000000000000000     
 fe   0.0000000000000000     
(PID.TID 0000.0001) totgC    4.3835628271327032E-04   3.7339155804723321E-22
(PID.TID 0000.0001) totgN   -8.9601429621721795E-07  -7.6322431613460236E-25
(PID.TID 0000.0001) totgP    0.0000000000000000E+00   0.0000000000000000E+00
(PID.TID 0000.0001) totgFe  -3.7289727334513114E+05  -3.1763362218530926E-13
(PID.TID 0000.0001) totgSi   0.0000000000000000E+00   0.0000000000000000E+00
 fe   0.0000000000000000     
 fe   0.0000000000000000     
(PID.TID 0000.0001) // =======================================================
(PID.TID 0000.0001) // Begin MONITOR dynamic field statistics
(PID.TID 0000.0001) // =======================================================
(PID.TID 0000.0001) %MON time_tsnumber                =               5644804
(PID.TID 0000.0001) %MON time_secondsf                =   2.4385553280000000E+11
(PID.TID 0000.0001) %MON dynstat_eta_max              =   9.3585263292548870E-01
(PID.TID 0000.0001) %MON dynstat_eta_min              =  -1.7302094835294037E+00
(PID.TID 0000.0001) %MON dynstat_eta_mean             =   1.6246259379004829E-10
(PID.TID 0000.0001) %MON dynstat_eta_sd               =   6.5162851373782660E-01
(PID.TID 0000.0001) %MON dynstat_eta_del2             =   9.3001978035930032E-04
(PID.TID 0000.0001) %MON dynstat_uvel_max             =   1.5534274763424283E-01
(PID.TID 0000.0001) %MON dynstat_uvel_min             =  -1.8460367246561368E-01
(PID.TID 0000.0001) %MON dynstat_uvel_mean            =   2.9493672516858827E-03
(PID.TID 0000.0001) %MON dynstat_uvel_sd              =   1.3884672928701481E-02
(PID.TID 0000.0001) %MON dynstat_uvel_del2            =   3.8124002408756709E-05
(PID.TID 0000.0001) %MON dynstat_vvel_max             =   1.1189876385677579E-01
(PID.TID 0000.0001) %MON dynstat_vvel_min             =  -1.4991981851827116E-01
(PID.TID 0000.0001) %MON dynstat_vvel_mean            =  -1.8982861497681772E-04
(PID.TID 0000.0001) %MON dynstat_vvel_sd              =   6.3516506005172830E-03
(PID.TID 0000.0001) %MON dynstat_vvel_del2            =   2.6600398503877520E-05
(PID.TID 0000.0001) %MON dynstat_wvel_max             =   4.3113686245976703E-05
(PID.TID 0000.0001) %MON dynstat_wvel_min             =  -6.4911685270326313E-05
(PID.TID 0000.0001) %MON dynstat_wvel_mean            =  -1.4077316511381250E-23
(PID.TID 0000.0001) %MON dynstat_wvel_sd              =   1.9024434600929628E-06
(PID.TID 0000.0001) %MON dynstat_wvel_del2            =   1.3090149634291957E-08
(PID.TID 0000.0001) %MON dynstat_theta_max            =   2.9961112712152659E+01
(PID.TID 0000.0001) %MON dynstat_theta_min            =  -2.1381750508832678E+00
(PID.TID 0000.0001) %MON dynstat_theta_mean           =   3.7553069297011996E+00
(PID.TID 0000.0001) %MON dynstat_theta_sd             =   5.1499484716061357E+00
(PID.TID 0000.0001) %MON dynstat_theta_del2           =   2.2536084225591346E-03
(PID.TID 0000.0001) %MON dynstat_salt_max             =   3.7553013323862125E+01
(PID.TID 0000.0001) %MON dynstat_salt_min             =   3.1354782975882330E+01
(PID.TID 0000.0001) %MON dynstat_salt_mean            =   3.4543283907149679E+01
(PID.TID 0000.0001) %MON dynstat_salt_sd              =   3.5867989948536272E-01
(PID.TID 0000.0001) %MON dynstat_salt_del2            =   3.8283032590018246E-04
(PID.TID 0000.0001) %MON forcing_qnet_max             =   4.5149834136962892E+02
(PID.TID 0000.0001) %MON forcing_qnet_min             =  -2.1192386779785156E+02
(PID.TID 0000.0001) %MON forcing_qnet_mean            =  -1.7618810898481581E+01
(PID.TID 0000.0001) %MON forcing_qnet_sd              =   1.1569810928117688E+02
(PID.TID 0000.0001) %MON forcing_qnet_del2            =   2.7337286084427864E-01
(PID.TID 0000.0001) %MON forcing_qsw_max              =   0.0000000000000000E+00
(PID.TID 0000.0001) %MON forcing_qsw_min              =   0.0000000000000000E+00
(PID.TID 0000.0001) %MON forcing_qsw_mean             =   0.0000000000000000E+00
(PID.TID 0000.0001) %MON forcing_qsw_sd               =   0.0000000000000000E+00
(PID.TID 0000.0001) %MON forcing_qsw_del2             =   0.0000000000000000E+00
(PID.TID 0000.0001) %MON forcing_empmr_max            =   6.9206222512718796E-05
(PID.TID 0000.0001) %MON forcing_empmr_min            =  -1.5544422772961752E-04
(PID.TID 0000.0001) %MON forcing_empmr_mean           =   1.2460352661810301E-14
(PID.TID 0000.0001) %MON forcing_empmr_sd             =   2.4700019777611149E-05
(PID.TID 0000.0001) %MON forcing_empmr_del2           =   1.1591736879228609E-07
(PID.TID 0000.0001) %MON forcing_fu_max               =   2.6902737915515901E-01
(PID.TID 0000.0001) %MON forcing_fu_min               =  -1.5706808120012283E-01
(PID.TID 0000.0001) %MON forcing_fu_mean              =   1.7804393042848428E-02
(PID.TID 0000.0001) %MON forcing_fu_sd                =   8.9598809050514677E-02
(PID.TID 0000.0001) %MON forcing_fu_del2              =   2.4870321403547670E-04
(PID.TID 0000.0001) %MON forcing_fv_max               =   1.9845492169260978E-01
(PID.TID 0000.0001) %MON forcing_fv_min               =  -1.5973595827817916E-01
(PID.TID 0000.0001) %MON forcing_fv_mean              =  -6.3949581310796437E-03
(PID.TID 0000.0001) %MON forcing_fv_sd                =   4.4425766452551814E-02
(PID.TID 0000.0001) %MON forcing_fv_del2              =   1.7992767173481016E-04
(PID.TID 0000.0001) %MON advcfl_uvel_max              =   4.0115623656791083E-02
(PID.TID 0000.0001) %MON advcfl_vvel_max              =   2.0712544933891651E-02
(PID.TID 0000.0001) %MON advcfl_wvel_max              =   1.3112695160107966E-02
(PID.TID 0000.0001) %MON advcfl_W_hf_max              =   1.5454247867270102E-02
(PID.TID 0000.0001) %MON pe_b_mean                    =   5.8613298605401378E-04
(PID.TID 0000.0001) %MON ke_max                       =   1.7857030349379948E-02
(PID.TID 0000.0001) %MON ke_mean                      =   1.1142718814214462E-04
(PID.TID 0000.0001) %MON ke_vol                       =   1.1739855207380157E+18
(PID.TID 0000.0001) %MON vort_r_min                   =  -5.5752273455805034E-07
(PID.TID 0000.0001) %MON vort_r_max                   =   6.2161971888045736E-07
(PID.TID 0000.0001) %MON vort_a_mean                  =  -2.5798915502264662E-05
(PID.TID 0000.0001) %MON vort_a_sd                    =   7.3558773001403029E-05
(PID.TID 0000.0001) %MON vort_p_mean                  =  -3.0020960747216321E-05
(PID.TID 0000.0001) %MON vort_p_sd                    =   9.8090576393667459E-05
(PID.TID 0000.0001) %MON surfExpan_theta_mean         =  -2.2993220092721439E-07
(PID.TID 0000.0001) %MON surfExpan_salt_mean          =   2.7845094135406037E-08
(PID.TID 0000.0001) // =======================================================
(PID.TID 0000.0001) // End MONITOR dynamic field statistics
(PID.TID 0000.0001) // =======================================================
(PID.TID 0000.0001) // =======================================================
(PID.TID 0000.0001) // Begin MONITOR ptracer field statistics
(PID.TID 0000.0001) // =======================================================
(PID.TID 0000.0001) %MON trcstat_ptracer01_max        =   2.3885187317884584E+03
(PID.TID 0000.0001) %MON trcstat_ptracer01_min        =   1.7788160746245819E+03
(PID.TID 0000.0001) %MON trcstat_ptracer01_mean       =   2.2509355806085705E+03
(PID.TID 0000.0001) %MON trcstat_ptracer01_sd         =   9.3583813442045241E+01
(PID.TID 0000.0001) %MON trcstat_ptracer01_del2       =   4.1809439033710233E-02
(PID.TID 0000.0001) %MON trcstat_ptracer02_max        =   2.4653431025321814E-02
(PID.TID 0000.0001) %MON trcstat_ptracer02_min        =   1.8201151212021168E-08
(PID.TID 0000.0001) %MON trcstat_ptracer02_mean       =   1.8077420429694443E-04
(PID.TID 0000.0001) %MON trcstat_ptracer02_sd         =   6.3774763837302201E-04
(PID.TID 0000.0001) %MON trcstat_ptracer02_del2       =   1.8464454748979659E-06
(PID.TID 0000.0001) %MON trcstat_ptracer03_max        =   1.4998665755754841E+00
(PID.TID 0000.0001) %MON trcstat_ptracer03_min        =   1.1380267108683133E-05
(PID.TID 0000.0001) %MON trcstat_ptracer03_mean       =   2.1854898052175005E-02
(PID.TID 0000.0001) %MON trcstat_ptracer03_sd         =   6.8025307586078124E-02
(PID.TID 0000.0001) %MON trcstat_ptracer03_del2       =   1.3853267167220716E-04
(PID.TID 0000.0001) %MON trcstat_ptracer04_max        =   4.6613590025921631E+01
(PID.TID 0000.0001) %MON trcstat_ptracer04_min        =   2.0220537334083095E-02
(PID.TID 0000.0001) %MON trcstat_ptracer04_mean       =   3.0988666483977870E+01
(PID.TID 0000.0001) %MON trcstat_ptracer04_sd         =   9.0278294301243474E+00
(PID.TID 0000.0001) %MON trcstat_ptracer04_del2       =   4.6836630834288847E-03
(PID.TID 0000.0001) %MON trcstat_ptracer05_max        =   0.0000000000000000E+00
(PID.TID 0000.0001) %MON trcstat_ptracer05_min        =   0.0000000000000000E+00
(PID.TID 0000.0001) %MON trcstat_ptracer05_mean       =   0.0000000000000000E+00
(PID.TID 0000.0001) %MON trcstat_ptracer05_sd         =   0.0000000000000000E+00
(PID.TID 0000.0001) %MON trcstat_ptracer05_del2       =   0.0000000000000000E+00
(PID.TID 0000.0001) %MON trcstat_ptracer06_max        =   0.0000000000000000E+00
(PID.TID 0000.0001) %MON trcstat_ptracer06_min        =   0.0000000000000000E+00
(PID.TID 0000.0001) %MON trcstat_ptracer06_mean       =   0.0000000000000000E+00
(PID.TID 0000.0001) %MON trcstat_ptracer06_sd         =   0.0000000000000000E+00
(PID.TID 0000.0001) %MON trcstat_ptracer06_del2       =   0.0000000000000000E+00
(PID.TID 0000.0001) %MON trcstat_ptracer07_max        =   1.0529624539087512E-03
(PID.TID 0000.0001) %MON trcstat_ptracer07_min        =   2.2420590248106790E-04
(PID.TID 0000.0001) %MON trcstat_ptracer07_mean       =   5.3064544297724847E-04
(PID.TID 0000.0001) %MON trcstat_ptracer07_sd         =   1.0678275965584430E-04
(PID.TID 0000.0001) %MON trcstat_ptracer07_del2       =   8.2677654478359339E-08
(PID.TID 0000.0001) %MON trcstat_ptracer08_max        =   1.2163696251470492E+01
(PID.TID 0000.0001) %MON trcstat_ptracer08_min        =  -5.4946538219549862E-04
(PID.TID 0000.0001) %MON trcstat_ptracer08_mean       =   5.2634311784707372E-02
(PID.TID 0000.0001) %MON trcstat_ptracer08_sd         =   2.7715517972638443E-01
(PID.TID 0000.0001) %MON trcstat_ptracer08_del2       =   9.4290091713412189E-04
(PID.TID 0000.0001) %MON trcstat_ptracer09_max        =   1.8360295076776321E+00
(PID.TID 0000.0001) %MON trcstat_ptracer09_min        =  -8.2937229242681975E-05
(PID.TID 0000.0001) %MON trcstat_ptracer09_mean       =   7.9447704679755475E-03
(PID.TID 0000.0001) %MON trcstat_ptracer09_sd         =   4.1834576221878202E-02
(PID.TID 0000.0001) %MON trcstat_ptracer09_del2       =   1.4232451014643542E-04
(PID.TID 0000.0001) %MON trcstat_ptracer10_max        =   0.0000000000000000E+00
(PID.TID 0000.0001) %MON trcstat_ptracer10_min        =   0.0000000000000000E+00
(PID.TID 0000.0001) %MON trcstat_ptracer10_mean       =   0.0000000000000000E+00
(PID.TID 0000.0001) %MON trcstat_ptracer10_sd         =   0.0000000000000000E+00
(PID.TID 0000.0001) %MON trcstat_ptracer10_del2       =   0.0000000000000000E+00
(PID.TID 0000.0001) %MON trcstat_ptracer11_max        =   2.8684602821191636E-04
(PID.TID 0000.0001) %MON trcstat_ptracer11_min        =  -1.2959969199064077E-08
(PID.TID 0000.0001) %MON trcstat_ptracer11_mean       =   1.2412437729446724E-06
(PID.TID 0000.0001) %MON trcstat_ptracer11_sd         =   6.5360919985400326E-06
(PID.TID 0000.0001) %MON trcstat_ptracer11_del2       =   2.2237512558957707E-08
(PID.TID 0000.0001) %MON trcstat_ptracer12_max        =   7.5591171974960778E+00
(PID.TID 0000.0001) %MON trcstat_ptracer12_min        =   3.8321667166937728E-06
(PID.TID 0000.0001) %MON trcstat_ptracer12_mean       =   5.0025335399209274E-02
(PID.TID 0000.0001) %MON trcstat_ptracer12_sd         =   1.3086814398665625E-01
(PID.TID 0000.0001) %MON trcstat_ptracer12_del2       =   4.1872133850875211E-04
(PID.TID 0000.0001) %MON trcstat_ptracer13_max        =   1.1409766493940212E+00
(PID.TID 0000.0001) %MON trcstat_ptracer13_min        =   5.7877686981704239E-07
(PID.TID 0000.0001) %MON trcstat_ptracer13_mean       =   7.5508732748645717E-03
(PID.TID 0000.0001) %MON trcstat_ptracer13_sd         =   1.9753450209691853E-02
(PID.TID 0000.0001) %MON trcstat_ptracer13_del2       =   6.3202969018496841E-05
(PID.TID 0000.0001) %MON trcstat_ptracer14_max        =   0.0000000000000000E+00
(PID.TID 0000.0001) %MON trcstat_ptracer14_min        =   0.0000000000000000E+00
(PID.TID 0000.0001) %MON trcstat_ptracer14_mean       =   0.0000000000000000E+00
(PID.TID 0000.0001) %MON trcstat_ptracer14_sd         =   0.0000000000000000E+00
(PID.TID 0000.0001) %MON trcstat_ptracer14_del2       =   0.0000000000000000E+00
(PID.TID 0000.0001) %MON trcstat_ptracer15_max        =   0.0000000000000000E+00
(PID.TID 0000.0001) %MON trcstat_ptracer15_min        =   0.0000000000000000E+00
(PID.TID 0000.0001) %MON trcstat_ptracer15_mean       =   0.0000000000000000E+00
(PID.TID 0000.0001) %MON trcstat_ptracer15_sd         =   0.0000000000000000E+00
(PID.TID 0000.0001) %MON trcstat_ptracer15_del2       =   0.0000000000000000E+00
(PID.TID 0000.0001) %MON trcstat_ptracer16_max        =   1.7825118778628919E-04
(PID.TID 0000.0001) %MON trcstat_ptracer16_min        =   8.9496582168834806E-11
(PID.TID 0000.0001) %MON trcstat_ptracer16_mean       =   1.1797227215969518E-06
(PID.TID 0000.0001) %MON trcstat_ptracer16_sd         =   3.0862119426761213E-06
(PID.TID 0000.0001) %MON trcstat_ptracer16_del2       =   9.8751450390240228E-09
(PID.TID 0000.0001) %MON trcstat_ptracer17_max        =   0.0000000000000000E+00
(PID.TID 0000.0001) %MON trcstat_ptracer17_min        =   0.0000000000000000E+00
(PID.TID 0000.0001) %MON trcstat_ptracer17_mean       =   0.0000000000000000E+00
(PID.TID 0000.0001) %MON trcstat_ptracer17_sd         =   0.0000000000000000E+00
(PID.TID 0000.0001) %MON trcstat_ptracer17_del2       =   0.0000000000000000E+00
(PID.TID 0000.0001) %MON trcstat_ptracer18_max        =   6.4692508525762589E-03
(PID.TID 0000.0001) %MON trcstat_ptracer18_min        =  -3.7264844903930665E-08
(PID.TID 0000.0001) %MON trcstat_ptracer18_mean       =   9.1111499614554523E-06
(PID.TID 0000.0001) %MON trcstat_ptracer18_sd         =   6.6554388263335111E-05
(PID.TID 0000.0001) %MON trcstat_ptracer18_del2       =   3.3713831176247436E-07
(PID.TID 0000.0001) %MON trcstat_ptracer19_max        =   7.5640517588180835E-03
(PID.TID 0000.0001) %MON trcstat_ptracer19_min        =  -4.2513779466293270E-08
(PID.TID 0000.0001) %MON trcstat_ptracer19_mean       =   9.3473654550979892E-06
(PID.TID 0000.0001) %MON trcstat_ptracer19_sd         =   6.8479420912168502E-05
(PID.TID 0000.0001) %MON trcstat_ptracer19_del2       =   3.3142178565891980E-07
(PID.TID 0000.0001) %MON trcstat_ptracer20_max        =   1.0941753359771766E-02
(PID.TID 0000.0001) %MON trcstat_ptracer20_min        =  -4.6462967945383806E-08
(PID.TID 0000.0001) %MON trcstat_ptracer20_mean       =   1.1619307227201587E-05
(PID.TID 0000.0001) %MON trcstat_ptracer20_sd         =   8.8737657148970305E-05
(PID.TID 0000.0001) %MON trcstat_ptracer20_del2       =   4.2642425557259857E-07
(PID.TID 0000.0001) %MON trcstat_ptracer21_max        =   1.0349865805699732E-02
(PID.TID 0000.0001) %MON trcstat_ptracer21_min        =  -4.7857181861890915E-08
(PID.TID 0000.0001) %MON trcstat_ptracer21_mean       =   1.1525781403048392E-05
(PID.TID 0000.0001) %MON trcstat_ptracer21_sd         =   8.7181918071216940E-05
(PID.TID 0000.0001) %MON trcstat_ptracer21_del2       =   4.1659479403448083E-07
(PID.TID 0000.0001) %MON trcstat_ptracer22_max        =   9.3566034013638361E-03
(PID.TID 0000.0001) %MON trcstat_ptracer22_min        =  -4.9083028662314635E-08
(PID.TID 0000.0001) %MON trcstat_ptracer22_mean       =   1.1240358802415633E-05
(PID.TID 0000.0001) %MON trcstat_ptracer22_sd         =   8.3915439665474301E-05
(PID.TID 0000.0001) %MON trcstat_ptracer22_del2       =   4.0751755859195397E-07
(PID.TID 0000.0001) %MON trcstat_ptracer23_max        =   1.2658834816646187E-02
(PID.TID 0000.0001) %MON trcstat_ptracer23_min        =  -5.0295489548078077E-08
(PID.TID 0000.0001) %MON trcstat_ptracer23_mean       =   1.3532190322587321E-05
(PID.TID 0000.0001) %MON trcstat_ptracer23_sd         =   1.0505615082909050E-04
(PID.TID 0000.0001) %MON trcstat_ptracer23_del2       =   5.0579721101896108E-07
(PID.TID 0000.0001) %MON trcstat_ptracer24_max        =   1.1815428497599825E-02
(PID.TID 0000.0001) %MON trcstat_ptracer24_min        =  -5.1346440928020702E-08
(PID.TID 0000.0001) %MON trcstat_ptracer24_mean       =   1.3135603480358805E-05
(PID.TID 0000.0001) %MON trcstat_ptracer24_sd         =   1.0061223589082774E-04
(PID.TID 0000.0001) %MON trcstat_ptracer24_del2       =   4.8490093748031132E-07
(PID.TID 0000.0001) %MON trcstat_ptracer25_max        =   1.1038136836359087E-02
(PID.TID 0000.0001) %MON trcstat_ptracer25_min        =  -5.2147007756484155E-08
(PID.TID 0000.0001) %MON trcstat_ptracer25_mean       =   1.2795169354370263E-05
(PID.TID 0000.0001) %MON trcstat_ptracer25_sd         =   9.6819944084299312E-05
(PID.TID 0000.0001) %MON trcstat_ptracer25_del2       =   4.6711983707546884E-07
(PID.TID 0000.0001) %MON trcstat_ptracer26_max        =   1.0335700253893552E-02
(PID.TID 0000.0001) %MON trcstat_ptracer26_min        =  -5.2575385109169616E-08
(PID.TID 0000.0001) %MON trcstat_ptracer26_mean       =   1.2514240288010830E-05
(PID.TID 0000.0001) %MON trcstat_ptracer26_sd         =   9.3678464857206581E-05
(PID.TID 0000.0001) %MON trcstat_ptracer26_del2       =   4.5233930883508895E-07
(PID.TID 0000.0001) %MON trcstat_ptracer27_max        =   9.6802523593848035E-03
(PID.TID 0000.0001) %MON trcstat_ptracer27_min        =  -5.2726277636730440E-08
(PID.TID 0000.0001) %MON trcstat_ptracer27_mean       =   1.2274765332276650E-05
(PID.TID 0000.0001) %MON trcstat_ptracer27_sd         =   9.0999758809068952E-05
(PID.TID 0000.0001) %MON trcstat_ptracer27_del2       =   4.3953287771706906E-07
(PID.TID 0000.0001) %MON trcstat_ptracer28_max        =   1.3647883280658536E-02
(PID.TID 0000.0001) %MON trcstat_ptracer28_min        =  -5.2897235109476043E-08
(PID.TID 0000.0001) %MON trcstat_ptracer28_mean       =   1.5208263726777847E-05
(PID.TID 0000.0001) %MON trcstat_ptracer28_sd         =   1.1810755097998528E-04
(PID.TID 0000.0001) %MON trcstat_ptracer28_del2       =   5.6843342315752710E-07
(PID.TID 0000.0001) %MON trcstat_ptracer29_max        =   1.2718677771747575E-02
(PID.TID 0000.0001) %MON trcstat_ptracer29_min        =  -5.2432242253091718E-08
(PID.TID 0000.0001) %MON trcstat_ptracer29_mean       =   1.4808627225135385E-05
(PID.TID 0000.0001) %MON trcstat_ptracer29_sd         =   1.1358265160750606E-04
(PID.TID 0000.0001) %MON trcstat_ptracer29_del2       =   5.4609007021874576E-07
(PID.TID 0000.0001) %MON trcstat_ptracer30_max        =   1.1923488184764706E-02
(PID.TID 0000.0001) %MON trcstat_ptracer30_min        =  -5.1821163088287680E-08
(PID.TID 0000.0001) %MON trcstat_ptracer30_mean       =   1.4477503733812723E-05
(PID.TID 0000.0001) %MON trcstat_ptracer30_sd         =   1.0987099323674300E-04
(PID.TID 0000.0001) %MON trcstat_ptracer30_del2       =   5.2734358561429449E-07
(PID.TID 0000.0001) %MON trcstat_ptracer31_max        =   1.1237253869498713E-02
(PID.TID 0000.0001) %MON trcstat_ptracer31_min        =  -5.1039213489409367E-08
(PID.TID 0000.0001) %MON trcstat_ptracer31_mean       =   1.4182439712959692E-05
(PID.TID 0000.0001) %MON trcstat_ptracer31_sd         =   1.0662039272041403E-04
(PID.TID 0000.0001) %MON trcstat_ptracer31_del2       =   5.1051140560416044E-07
(PID.TID 0000.0001) %MON trcstat_ptracer32_max        =   1.0622776173419658E-02
(PID.TID 0000.0001) %MON trcstat_ptracer32_min        =  -5.0047766504192587E-08
(PID.TID 0000.0001) %MON trcstat_ptracer32_mean       =   1.3891358266876098E-05
(PID.TID 0000.0001) %MON trcstat_ptracer32_sd         =   1.0358141532270461E-04
(PID.TID 0000.0001) %MON trcstat_ptracer32_del2       =   4.9474317217287901E-07
(PID.TID 0000.0001) %MON trcstat_ptracer33_max        =   1.0111742320725814E-02
(PID.TID 0000.0001) %MON trcstat_ptracer33_min        =  -4.8744574877329212E-08
(PID.TID 0000.0001) %MON trcstat_ptracer33_mean       =   1.3589301433258852E-05
(PID.TID 0000.0001) %MON trcstat_ptracer33_sd         =   1.0057827267955816E-04
(PID.TID 0000.0001) %MON trcstat_ptracer33_del2       =   4.7929063947506228E-07
(PID.TID 0000.0001) %MON trcstat_ptracer34_max        =   9.6324479735527754E-03
(PID.TID 0000.0001) %MON trcstat_ptracer34_min        =  -4.7012340312993226E-08
(PID.TID 0000.0001) %MON trcstat_ptracer34_mean       =   1.3244603385404264E-05
(PID.TID 0000.0001) %MON trcstat_ptracer34_sd         =   9.7300081344477412E-05
(PID.TID 0000.0001) %MON trcstat_ptracer34_del2       =   4.6282838363565697E-07
(PID.TID 0000.0001) %MON trcstat_ptracer35_max        =   9.1904584083565624E-03
(PID.TID 0000.0001) %MON trcstat_ptracer35_min        =  -4.4681139190239242E-08
(PID.TID 0000.0001) %MON trcstat_ptracer35_mean       =   1.2859289168664411E-05
(PID.TID 0000.0001) %MON trcstat_ptracer35_sd         =   9.3703228758744959E-05
(PID.TID 0000.0001) %MON trcstat_ptracer35_del2       =   4.4513173231718456E-07
(PID.TID 0000.0001) %MON trcstat_ptracer36_max        =   8.7130370966075309E-03
(PID.TID 0000.0001) %MON trcstat_ptracer36_min        =  -4.1499041161400755E-08
(PID.TID 0000.0001) %MON trcstat_ptracer36_mean       =   1.2441047792351306E-05
(PID.TID 0000.0001) %MON trcstat_ptracer36_sd         =   8.9767021156380599E-05
(PID.TID 0000.0001) %MON trcstat_ptracer36_del2       =   4.2607261659673616E-07
(PID.TID 0000.0001) %MON trcstat_ptracer37_max        =   8.2076927488138451E-03
(PID.TID 0000.0001) %MON trcstat_ptracer37_min        =  -3.7086984295429350E-08
(PID.TID 0000.0001) %MON trcstat_ptracer37_mean       =   1.1995932235869571E-05
(PID.TID 0000.0001) %MON trcstat_ptracer37_sd         =   8.5517547129015204E-05
(PID.TID 0000.0001) %MON trcstat_ptracer37_del2       =   4.0557075875283711E-07
(PID.TID 0000.0001) %MON trcstat_ptracer38_max        =   7.6444829025272510E-03
(PID.TID 0000.0001) %MON trcstat_ptracer38_min        =  -3.0849356285621232E-08
(PID.TID 0000.0001) %MON trcstat_ptracer38_mean       =   1.1527996842670388E-05
(PID.TID 0000.0001) %MON trcstat_ptracer38_sd         =   8.0972017481988930E-05
(PID.TID 0000.0001) %MON trcstat_ptracer38_del2       =   3.8340962295987623E-07
(PID.TID 0000.0001) %MON trcstat_ptracer39_max        =   6.9950776902028972E-03
(PID.TID 0000.0001) %MON trcstat_ptracer39_min        =  -2.1862846119951342E-08
(PID.TID 0000.0001) %MON trcstat_ptracer39_mean       =   1.1041722503387449E-05
(PID.TID 0000.0001) %MON trcstat_ptracer39_sd         =   7.6188878805838196E-05
(PID.TID 0000.0001) %MON trcstat_ptracer39_del2       =   3.5988892561425855E-07
(PID.TID 0000.0001) %MON trcstat_ptracer40_max        =   6.2352957062034578E-03
(PID.TID 0000.0001) %MON trcstat_ptracer40_min        =  -8.4467123047233357E-09
(PID.TID 0000.0001) %MON trcstat_ptracer40_mean       =   1.0543401419424746E-05
(PID.TID 0000.0001) %MON trcstat_ptracer40_sd         =   7.1294236155424194E-05
(PID.TID 0000.0001) %MON trcstat_ptracer40_del2       =   3.3600338679625977E-07
(PID.TID 0000.0001) %MON trcstat_ptracer41_max        =   5.4143543526760391E-03
(PID.TID 0000.0001) %MON trcstat_ptracer41_min        =   2.6805566536964248E-09
(PID.TID 0000.0001) %MON trcstat_ptracer41_mean       =   1.0050554588013703E-05
(PID.TID 0000.0001) %MON trcstat_ptracer41_sd         =   6.6451447519330612E-05
(PID.TID 0000.0001) %MON trcstat_ptracer41_del2       =   3.1234481087718434E-07
(PID.TID 0000.0001) %MON trcstat_ptracer42_max        =   4.5968376399965196E-03
(PID.TID 0000.0001) %MON trcstat_ptracer42_min        =   5.3360245331758008E-09
(PID.TID 0000.0001) %MON trcstat_ptracer42_mean       =   9.5821503482149730E-06
(PID.TID 0000.0001) %MON trcstat_ptracer42_sd         =   6.1809705254474467E-05
(PID.TID 0000.0001) %MON trcstat_ptracer42_del2       =   2.8988987093909989E-07
(PID.TID 0000.0001) %MON trcstat_ptracer43_max        =   3.0810493956786610E-03
(PID.TID 0000.0001) %MON trcstat_ptracer43_min        =  -5.6867940466271273E-08
(PID.TID 0000.0001) %MON trcstat_ptracer43_mean       =   6.0028085668243116E-06
(PID.TID 0000.0001) %MON trcstat_ptracer43_sd         =   4.4506749930825708E-05
(PID.TID 0000.0001) %MON trcstat_ptracer43_del2       =   2.3222550334520733E-07
(PID.TID 0000.0001) %MON trcstat_ptracer44_max        =   3.0798797613451915E-03
(PID.TID 0000.0001) %MON trcstat_ptracer44_min        =  -5.6867940860884355E-08
(PID.TID 0000.0001) %MON trcstat_ptracer44_mean       =   6.0025762028366261E-06
(PID.TID 0000.0001) %MON trcstat_ptracer44_sd         =   4.4499176478274630E-05
(PID.TID 0000.0001) %MON trcstat_ptracer44_del2       =   2.3214924811262070E-07
(PID.TID 0000.0001) %MON trcstat_ptracer45_max        =   3.0788389296492876E-03
(PID.TID 0000.0001) %MON trcstat_ptracer45_min        =  -5.6867941211281875E-08
(PID.TID 0000.0001) %MON trcstat_ptracer45_mean       =   6.0023702580547427E-06
(PID.TID 0000.0001) %MON trcstat_ptracer45_sd         =   4.4492501414791340E-05
(PID.TID 0000.0001) %MON trcstat_ptracer45_del2       =   2.3208167880183900E-07
(PID.TID 0000.0001) %MON trcstat_ptracer46_max        =   3.0779121825905273E-03
(PID.TID 0000.0001) %MON trcstat_ptracer46_min        =  -5.6867941522660550E-08
(PID.TID 0000.0001) %MON trcstat_ptracer46_mean       =   6.0021875568781242E-06
(PID.TID 0000.0001) %MON trcstat_ptracer46_sd         =   4.4486609473342292E-05
(PID.TID 0000.0001) %MON trcstat_ptracer46_del2       =   2.3202173951830472E-07
(PID.TID 0000.0001) %MON trcstat_ptracer47_max        =   3.0770865851116203E-03
(PID.TID 0000.0001) %MON trcstat_ptracer47_min        =  -5.6867941799561252E-08
(PID.TID 0000.0001) %MON trcstat_ptracer47_mean       =   6.0020253370725621E-06
(PID.TID 0000.0001) %MON trcstat_ptracer47_sd         =   4.4481401594162306E-05
(PID.TID 0000.0001) %MON trcstat_ptracer47_del2       =   2.3196851394918450E-07
(PID.TID 0000.0001) %MON trcstat_ptracer48_max        =   3.0763507506559816E-03
(PID.TID 0000.0001) %MON trcstat_ptracer48_min        =  -5.6867942045959510E-08
(PID.TID 0000.0001) %MON trcstat_ptracer48_mean       =   6.0018811900910559E-06
(PID.TID 0000.0001) %MON trcstat_ptracer48_sd         =   4.4476792751414351E-05
(PID.TID 0000.0001) %MON trcstat_ptracer48_del2       =   2.3192121150589355E-07
(PID.TID 0000.0001) %MON trcstat_ptracer49_max        =   3.0756946407267715E-03
(PID.TID 0000.0001) %MON trcstat_ptracer49_min        =  -5.6867942265342724E-08
(PID.TID 0000.0001) %MON trcstat_ptracer49_mean       =   6.0017530112992133E-06
(PID.TID 0000.0001) %MON trcstat_ptracer49_sd         =   4.4472709294689562E-05
(PID.TID 0000.0001) %MON trcstat_ptracer49_del2       =   2.3187914118132701E-07
(PID.TID 0000.0001) %MON trcstat_ptracer50_max        =   3.0751093930137833E-03
(PID.TID 0000.0001) %MON trcstat_ptracer50_min        =  -5.6867942460775565E-08
(PID.TID 0000.0001) %MON trcstat_ptracer50_mean       =   6.0016389582887564E-06
(PID.TID 0000.0001) %MON trcstat_ptracer50_sd         =   4.4469087673407729E-05
(PID.TID 0000.0001) %MON trcstat_ptracer50_del2       =   2.3184169876232169E-07
(PID.TID 0000.0001) %MON trcstat_ptracer51_max        =   3.0745871735948387E-03
(PID.TID 0000.0001) %MON trcstat_ptracer51_min        =  -5.6867942634955251E-08
(PID.TID 0000.0001) %MON trcstat_ptracer51_mean       =   6.0015374149556154E-06
(PID.TID 0000.0001) %MON trcstat_ptracer51_sd         =   4.4465872859277717E-05
(PID.TID 0000.0001) %MON trcstat_ptracer51_del2       =   2.3180835518109119E-07
(PID.TID 0000.0001) %MON trcstat_ptracer52_max        =   3.0741210494865260E-03
(PID.TID 0000.0001) %MON trcstat_ptracer52_min        =  -5.6867942790259556E-08
(PID.TID 0000.0001) %MON trcstat_ptracer52_mean       =   6.0014469613623609E-06
(PID.TID 0000.0001) %MON trcstat_ptracer52_sd         =   4.4463016789873973E-05
(PID.TID 0000.0001) %MON trcstat_ptracer52_del2       =   2.3177864572280668E-07
(PID.TID 0000.0001) %MON trcstat_ptracer53_max        =   3.0737048784479559E-03
(PID.TID 0000.0001) %MON trcstat_ptracer53_min        =  -5.6867942928787586E-08
(PID.TID 0000.0001) %MON trcstat_ptracer53_mean       =   6.0013663478399304E-06
(PID.TID 0000.0001) %MON trcstat_ptracer53_sd         =   4.4460477532654646E-05
(PID.TID 0000.0001) %MON trcstat_ptracer53_del2       =   2.3175216159496902E-07
(PID.TID 0000.0001) %MON trcstat_ptracer54_max        =   3.0733332134568322E-03
(PID.TID 0000.0001) %MON trcstat_ptracer54_min        =  -5.6867943052394475E-08
(PID.TID 0000.0001) %MON trcstat_ptracer54_mean       =   6.0012944729002290E-06
(PID.TID 0000.0001) %MON trcstat_ptracer54_sd         =   4.4458218418331416E-05
(PID.TID 0000.0001) %MON trcstat_ptracer54_del2       =   2.3172854254513357E-07
(PID.TID 0000.0001) %MON trcstat_ptracer55_max        =   3.0730012197008223E-03
(PID.TID 0000.0001) %MON trcstat_ptracer55_min        =  -5.6867943162721946E-08
(PID.TID 0000.0001) %MON trcstat_ptracer55_mean       =   6.0012303643040491E-06
(PID.TID 0000.0001) %MON trcstat_ptracer55_sd         =   4.4456207315127511E-05
(PID.TID 0000.0001) %MON trcstat_ptracer55_del2       =   2.3170747058846816E-07
(PID.TID 0000.0001) %MON trcstat_ptracer56_max        =   3.0727046022761485E-03
(PID.TID 0000.0001) %MON trcstat_ptracer56_min        =  -5.6867943261224546E-08
(PID.TID 0000.0001) %MON trcstat_ptracer56_mean       =   6.0011731627862593E-06
(PID.TID 0000.0001) %MON trcstat_ptracer56_sd         =   4.4454416012474691E-05
(PID.TID 0000.0001) %MON trcstat_ptracer56_del2       =   2.3168866464315683E-07
(PID.TID 0000.0001) %MON trcstat_ptracer57_max        =   3.0724395430732636E-03
(PID.TID 0000.0001) %MON trcstat_ptracer57_min        =  -5.6867943349191948E-08
(PID.TID 0000.0001) %MON trcstat_ptracer57_mean       =   6.0011221080278599E-06
(PID.TID 0000.0001) %MON trcstat_ptracer57_sd         =   4.4452819698206508E-05
(PID.TID 0000.0001) %MON trcstat_ptracer57_del2       =   2.3167187592677772E-07
(PID.TID 0000.0001) %MON trcstat_ptracer58_max        =   3.0722026455677841E-03
(PID.TID 0000.0001) %MON trcstat_ptracer58_min        =  -5.6867943427768865E-08
(PID.TID 0000.0001) %MON trcstat_ptracer58_mean       =   6.0010765265320796E-06
(PID.TID 0000.0001) %MON trcstat_ptracer58_sd         =   4.4451396513979364E-05
(PID.TID 0000.0001) %MON trcstat_ptracer58_del2       =   2.3165688399308283E-07
(PID.TID 0000.0001) %MON trcstat_ptracer59_max        =   3.0719908864324159E-03
(PID.TID 0000.0001) %MON trcstat_ptracer59_min        =  -5.6867943497972041E-08
(PID.TID 0000.0001) %MON trcstat_ptracer59_mean       =   6.0010358211138243E-06
(PID.TID 0000.0001) %MON trcstat_ptracer59_sd         =   4.4450127174588863E-05
(PID.TID 0000.0001) %MON trcstat_ptracer59_del2       =   2.3164349329904127E-07
(PID.TID 0000.0001) %MON trcstat_ptracer60_max        =   3.0718015730500413E-03
(PID.TID 0000.0001) %MON trcstat_ptracer60_min        =  -5.6867943560705452E-08
(PID.TID 0000.0001) %MON trcstat_ptracer60_mean       =   6.0009994617799152E-06
(PID.TID 0000.0001) %MON trcstat_ptracer60_sd         =   4.4448994641883090E-05
(PID.TID 0000.0001) %MON trcstat_ptracer60_del2       =   2.3163153023150902E-07
(PID.TID 0000.0001) %MON trcstat_ptracer61_max        =   3.0716323061451430E-03
(PID.TID 0000.0001) %MON trcstat_ptracer61_min        =  -5.6867943616773210E-08
(PID.TID 0000.0001) %MON trcstat_ptracer61_mean       =   6.0009669777783180E-06
(PID.TID 0000.0001) %MON trcstat_ptracer61_sd         =   4.4447983844109774E-05
(PID.TID 0000.0001) %MON trcstat_ptracer61_del2       =   2.3162084051912212E-07
(PID.TID 0000.0001) %MON trcstat_ptracer62_max        =   3.0714809468653957E-03
(PID.TID 0000.0001) %MON trcstat_ptracer62_min        =  -5.6867943666890892E-08
(PID.TID 0000.0001) %MON trcstat_ptracer62_mean       =   6.0009379506549532E-06
(PID.TID 0000.0001) %MON trcstat_ptracer62_sd         =   4.4447081434166000E-05
(PID.TID 0000.0001) %MON trcstat_ptracer62_del2       =   2.3161128698537693E-07
(PID.TID 0000.0001) %MON trcstat_ptracer63_max        =   3.0713455877414242E-03
(PID.TID 0000.0001) %MON trcstat_ptracer63_min        =  -5.6867943711696069E-08
(PID.TID 0000.0001) %MON trcstat_ptracer63_mean       =   6.0009120082053724E-06
(PID.TID 0000.0001) %MON trcstat_ptracer63_sd         =   4.4446275579086529E-05
(PID.TID 0000.0001) %MON trcstat_ptracer63_del2       =   2.3160274754657289E-07
(PID.TID 0000.0001) %MON trcstat_ptracer64_max        =   3.0712245270335969E-03
(PID.TID 0000.0001) %MON trcstat_ptracer64_min        =  -5.6867943751756539E-08
(PID.TID 0000.0001) %MON trcstat_ptracer64_mean       =   6.0008888191497129E-06
(PID.TID 0000.0001) %MON trcstat_ptracer64_sd         =   4.4445555779224664E-05
(PID.TID 0000.0001) %MON trcstat_ptracer64_del2       =   2.3159511350627251E-07
(PID.TID 0000.0001) %MON trcstat_ptracer65_max        =   3.0711162460429781E-03
(PID.TID 0000.0001) %MON trcstat_ptracer65_min        =  -5.6867943787578548E-08
(PID.TID 0000.0001) %MON trcstat_ptracer65_mean       =   6.0008680884657062E-06
(PID.TID 0000.0001) %MON trcstat_ptracer65_sd         =   4.4444912710061938E-05
(PID.TID 0000.0001) %MON trcstat_ptracer65_del2       =   2.3158828802275777E-07
(PID.TID 0000.0001) %MON trcstat_ptracer66_max        =   3.0710193890213611E-03
(PID.TID 0000.0001) %MON trcstat_ptracer66_min        =  -5.6867943819613765E-08
(PID.TID 0000.0001) %MON trcstat_ptracer66_mean       =   6.0008495532932427E-06
(PID.TID 0000.0001) %MON trcstat_ptracer66_sd         =   4.4444338084207822E-05
(PID.TID 0000.0001) %MON trcstat_ptracer66_del2       =   2.3158218477921607E-07
(PID.TID 0000.0001) %MON trcstat_ptracer67_max        =   3.0709327453643173E-03
(PID.TID 0000.0001) %MON trcstat_ptracer67_min        =  -5.6867943848264813E-08
(PID.TID 0000.0001) %MON trcstat_ptracer67_mean       =   6.0008329793165816E-06
(PID.TID 0000.0001) %MON trcstat_ptracer67_sd         =   4.4443824529235403E-05
(PID.TID 0000.0001) %MON trcstat_ptracer67_del2       =   2.3157672681024281E-07
(PID.TID 0000.0001) %MON trcstat_ptracer68_max        =   3.0708552338129906E-03
(PID.TID 0000.0001) %MON trcstat_ptracer68_min        =  -5.6867943873891239E-08
(PID.TID 0000.0001) %MON trcstat_ptracer68_mean       =   6.0008181575838707E-06
(PID.TID 0000.0001) %MON trcstat_ptracer68_sd         =   4.4443365485636277E-05
(PID.TID 0000.0001) %MON trcstat_ptracer68_del2       =   2.3157184547451442E-07
(PID.TID 0000.0001) %MON trcstat_ptracer69_max        =   3.0707858884260410E-03
(PID.TID 0000.0001) %MON trcstat_ptracer69_min        =  -5.6867943896813942E-08
(PID.TID 0000.0001) %MON trcstat_ptracer69_mean       =   6.0008049016895052E-06
(PID.TID 0000.0001) %MON trcstat_ptracer69_sd         =   4.4442955111153963E-05
(PID.TID 0000.0001) %MON trcstat_ptracer69_del2       =   2.3156747949311623E-07
(PID.TID 0000.0001) %MON trcstat_ptracer70_max        =   3.0707238461136844E-03
(PID.TID 0000.0001) %MON trcstat_ptracer70_min        =  -5.6867943917319425E-08
(PID.TID 0000.0001) %MON trcstat_ptracer70_mean       =   6.0007930452850176E-06
(PID.TID 0000.0001) %MON trcstat_ptracer70_sd         =   4.4442588200725959E-05
(PID.TID 0000.0001) %MON trcstat_ptracer70_del2       =   2.3156357418080520E-07
(PID.TID 0000.0001) %MON trcstat_ptracer71_max        =   3.0706683355520487E-03
(PID.TID 0000.0001) %MON trcstat_ptracer71_min        =  -5.6867943935663618E-08
(PID.TID 0000.0001) %MON trcstat_ptracer71_mean       =   6.0007824398770701E-06
(PID.TID 0000.0001) %MON trcstat_ptracer71_sd         =   4.4442260114903235E-05
(PID.TID 0000.0001) %MON trcstat_ptracer71_del2       =   2.3156008071051960E-07
(PID.TID 0000.0001) %MON trcstat_ptracer72_max        =   3.0706186673186988E-03
(PID.TID 0000.0001) %MON trcstat_ptracer72_min        =  -5.6867943952075139E-08
(PID.TID 0000.0001) %MON trcstat_ptracer72_mean       =   6.0007729528751057E-06
(PID.TID 0000.0001) %MON trcstat_ptracer72_sd         =   4.4441966716697398E-05
(PID.TID 0000.0001) %MON trcstat_ptracer72_del2       =   2.3155695547371544E-07
(PID.TID 0000.0001) %MON trcstat_ptracer73_max        =   2.1267334533060251E-03
(PID.TID 0000.0001) %MON trcstat_ptracer73_min        =  -1.7811283783187277E-08
(PID.TID 0000.0001) %MON trcstat_ptracer73_mean       =   2.8550326661717218E-06
(PID.TID 0000.0001) %MON trcstat_ptracer73_sd         =   2.0877512586445949E-05
(PID.TID 0000.0001) %MON trcstat_ptracer73_del2       =   1.0752808665671395E-07
(PID.TID 0000.0001) %MON trcstat_ptracer74_max        =   1.8422584081357559E-03
(PID.TID 0000.0001) %MON trcstat_ptracer74_min        =  -1.4551468211109892E-08
(PID.TID 0000.0001) %MON trcstat_ptracer74_mean       =   2.6957119641486772E-06
(PID.TID 0000.0001) %MON trcstat_ptracer74_sd         =   1.9638127508541669E-05
(PID.TID 0000.0001) %MON trcstat_ptracer74_del2       =   1.0005675034528217E-07
(PID.TID 0000.0001) %MON trcstat_ptracer75_max        =   2.1217795933248002E-03
(PID.TID 0000.0001) %MON trcstat_ptracer75_min        =  -1.2771366025772704E-08
(PID.TID 0000.0001) %MON trcstat_ptracer75_mean       =   2.8124704548970519E-06
(PID.TID 0000.0001) %MON trcstat_ptracer75_sd         =   2.0955924474456252E-05
(PID.TID 0000.0001) %MON trcstat_ptracer75_del2       =   1.0493355116041158E-07
(PID.TID 0000.0001) %MON trcstat_ptracer76_max        =   1.8791676779937041E-03
(PID.TID 0000.0001) %MON trcstat_ptracer76_min        =  -1.2022250725006491E-08
(PID.TID 0000.0001) %MON trcstat_ptracer76_mean       =   2.4789987956903326E-06
(PID.TID 0000.0001) %MON trcstat_ptracer76_sd         =   1.8294927723741515E-05
(PID.TID 0000.0001) %MON trcstat_ptracer76_del2       =   8.9752431822827641E-08
(PID.TID 0000.0001) %MON trcstat_ptracer77_max        =   1.7787256679542025E-03
(PID.TID 0000.0001) %MON trcstat_ptracer77_min        =  -1.1308543184272471E-08
(PID.TID 0000.0001) %MON trcstat_ptracer77_mean       =   2.2324763583465883E-06
(PID.TID 0000.0001) %MON trcstat_ptracer77_sd         =   1.6458667719384667E-05
(PID.TID 0000.0001) %MON trcstat_ptracer77_del2       =   7.9598172984051509E-08
(PID.TID 0000.0001) %MON trcstat_ptracer78_max        =   2.2085121472678938E-03
(PID.TID 0000.0001) %MON trcstat_ptracer78_min        =  -1.0599578380528051E-08
(PID.TID 0000.0001) %MON trcstat_ptracer78_mean       =   2.3600207248392369E-06
(PID.TID 0000.0001) %MON trcstat_ptracer78_sd         =   1.8142953960574946E-05
(PID.TID 0000.0001) %MON trcstat_ptracer78_del2       =   8.9052329712538685E-08
(PID.TID 0000.0001) %MON trcstat_ptracer79_max        =   1.8459785734906448E-03
(PID.TID 0000.0001) %MON trcstat_ptracer79_min        =  -9.8496486401287841E-09
(PID.TID 0000.0001) %MON trcstat_ptracer79_mean       =   2.0599745437610661E-06
(PID.TID 0000.0001) %MON trcstat_ptracer79_sd         =   1.5635812631421696E-05
(PID.TID 0000.0001) %MON trcstat_ptracer79_del2       =   7.7017736400542548E-08
(PID.TID 0000.0001) %MON trcstat_ptracer80_max        =   1.5439249101544448E-03
(PID.TID 0000.0001) %MON trcstat_ptracer80_min        =  -9.0878566014957235E-09
(PID.TID 0000.0001) %MON trcstat_ptracer80_mean       =   1.8028158976483286E-06
(PID.TID 0000.0001) %MON trcstat_ptracer80_sd         =   1.3536150893029651E-05
(PID.TID 0000.0001) %MON trcstat_ptracer80_del2       =   6.6880210522337936E-08
(PID.TID 0000.0001) %MON trcstat_ptracer81_max        =   1.2915976111319881E-03
(PID.TID 0000.0001) %MON trcstat_ptracer81_min        =  -8.3462293638089153E-09
(PID.TID 0000.0001) %MON trcstat_ptracer81_mean       =   1.5835423344517991E-06
(PID.TID 0000.0001) %MON trcstat_ptracer81_sd         =   1.1781313691639490E-05
(PID.TID 0000.0001) %MON trcstat_ptracer81_del2       =   5.8372046956202891E-08
(PID.TID 0000.0001) %MON trcstat_ptracer82_max        =   1.0784012636785596E-03
(PID.TID 0000.0001) %MON trcstat_ptracer82_min        =  -7.7088500238593265E-09
(PID.TID 0000.0001) %MON trcstat_ptracer82_mean       =   1.3977894708867534E-06
(PID.TID 0000.0001) %MON trcstat_ptracer82_sd         =   1.0314737426164233E-05
(PID.TID 0000.0001) %MON trcstat_ptracer82_del2       =   5.1259757634948347E-08
(PID.TID 0000.0001) %MON trcstat_ptracer83_max        =   1.2825260506096909E-03
(PID.TID 0000.0001) %MON trcstat_ptracer83_min        =  -7.5128661670663047E-09
(PID.TID 0000.0001) %MON trcstat_ptracer83_mean       =   1.4429096693532811E-06
(PID.TID 0000.0001) %MON trcstat_ptracer83_sd         =   1.0978536288204297E-05
(PID.TID 0000.0001) %MON trcstat_ptracer83_del2       =   5.4899098824937132E-08
(PID.TID 0000.0001) %MON trcstat_ptracer84_max        =   1.0476690089808987E-03
(PID.TID 0000.0001) %MON trcstat_ptracer84_min        =  -7.3364363722677108E-09
(PID.TID 0000.0001) %MON trcstat_ptracer84_mean       =   1.2765820644357944E-06
(PID.TID 0000.0001) %MON trcstat_ptracer84_sd         =   9.5605323901932897E-06
(PID.TID 0000.0001) %MON trcstat_ptracer84_del2       =   4.8082850676218575E-08
(PID.TID 0000.0001) %MON trcstat_ptracer85_max        =   8.5754201917053537E-04
(PID.TID 0000.0001) %MON trcstat_ptracer85_min        =  -7.2581668658209565E-09
(PID.TID 0000.0001) %MON trcstat_ptracer85_mean       =   1.1490136079206995E-06
(PID.TID 0000.0001) %MON trcstat_ptracer85_sd         =   8.4966279393759402E-06
(PID.TID 0000.0001) %MON trcstat_ptracer85_del2       =   4.2984114169607541E-08
(PID.TID 0000.0001) %MON trcstat_ptracer86_max        =   7.0426800731633263E-04
(PID.TID 0000.0001) %MON trcstat_ptracer86_min        =  -7.1549008881439963E-09
(PID.TID 0000.0001) %MON trcstat_ptracer86_mean       =   1.0547459737651306E-06
(PID.TID 0000.0001) %MON trcstat_ptracer86_sd         =   7.7268530304504824E-06
(PID.TID 0000.0001) %MON trcstat_ptracer86_del2       =   3.9312214292665067E-08
(PID.TID 0000.0001) %MON trcstat_ptracer87_max        =   5.8176859678390612E-04
(PID.TID 0000.0001) %MON trcstat_ptracer87_min        =  -7.0209414052713995E-09
(PID.TID 0000.0001) %MON trcstat_ptracer87_mean       =   9.8891616668029277E-07
(PID.TID 0000.0001) %MON trcstat_ptracer87_sd         =   7.2010451776351384E-06
(PID.TID 0000.0001) %MON trcstat_ptracer87_del2       =   3.6785763964610309E-08
(PID.TID 0000.0001) %MON trcstat_ptracer88_max        =   4.8872425670228156E-04
(PID.TID 0000.0001) %MON trcstat_ptracer88_min        =  -6.8409932457070321E-09
(PID.TID 0000.0001) %MON trcstat_ptracer88_mean       =   9.4661732872414492E-07
(PID.TID 0000.0001) %MON trcstat_ptracer88_sd         =   6.8667797051498905E-06
(PID.TID 0000.0001) %MON trcstat_ptracer88_del2       =   3.5132097872361205E-08
(PID.TID 0000.0001) %MON trcstat_ptracer89_max        =   4.2443782908524946E-04
(PID.TID 0000.0001) %MON trcstat_ptracer89_min        =  -6.5974799034038600E-09
(PID.TID 0000.0001) %MON trcstat_ptracer89_mean       =   9.2167998052466598E-07
(PID.TID 0000.0001) %MON trcstat_ptracer89_sd         =   6.6650503898387340E-06
(PID.TID 0000.0001) %MON trcstat_ptracer89_del2       =   3.4096553655132442E-08
(PID.TID 0000.0001) %MON trcstat_ptracer90_max        =   4.1945758898030765E-04
(PID.TID 0000.0001) %MON trcstat_ptracer90_min        =  -6.2649037813482163E-09
(PID.TID 0000.0001) %MON trcstat_ptracer90_mean       =   9.0788018090777222E-07
(PID.TID 0000.0001) %MON trcstat_ptracer90_sd         =   6.5413998134968465E-06
(PID.TID 0000.0001) %MON trcstat_ptracer90_del2       =   3.3405417902848247E-08
(PID.TID 0000.0001) %MON trcstat_ptracer91_max        =   4.1300899775182715E-04
(PID.TID 0000.0001) %MON trcstat_ptracer91_min        =  -5.8054180514659450E-09
(PID.TID 0000.0001) %MON trcstat_ptracer91_mean       =   9.0028197164887267E-07
(PID.TID 0000.0001) %MON trcstat_ptracer91_sd         =   6.4562463193416559E-06
(PID.TID 0000.0001) %MON trcstat_ptracer91_del2       =   3.2883751233089764E-08
(PID.TID 0000.0001) %MON trcstat_ptracer92_max        =   4.0469027854191753E-04
(PID.TID 0000.0001) %MON trcstat_ptracer92_min        =  -5.1623539382125519E-09
(PID.TID 0000.0001) %MON trcstat_ptracer92_mean       =   8.9631537134339728E-07
(PID.TID 0000.0001) %MON trcstat_ptracer92_sd         =   6.3873077739605675E-06
(PID.TID 0000.0001) %MON trcstat_ptracer92_del2       =   3.2422898244561949E-08
(PID.TID 0000.0001) %MON trcstat_ptracer93_max        =   3.9401173466395824E-04
(PID.TID 0000.0001) %MON trcstat_ptracer93_min        =  -4.2459002224883592E-09
(PID.TID 0000.0001) %MON trcstat_ptracer93_mean       =   8.9445344330389431E-07
(PID.TID 0000.0001) %MON trcstat_ptracer93_sd         =   6.3208322722183141E-06
(PID.TID 0000.0001) %MON trcstat_ptracer93_del2       =   3.1957206175314491E-08
(PID.TID 0000.0001) %MON trcstat_ptracer94_max        =   3.8039254532875179E-04
(PID.TID 0000.0001) %MON trcstat_ptracer94_min        =  -2.9180490371162893E-09
(PID.TID 0000.0001) %MON trcstat_ptracer94_mean       =   8.9374273507420763E-07
(PID.TID 0000.0001) %MON trcstat_ptracer94_sd         =   6.2475252550399560E-06
(PID.TID 0000.0001) %MON trcstat_ptracer94_del2       =   3.1438003189996290E-08
(PID.TID 0000.0001) %MON trcstat_ptracer95_max        =   3.7989268738486452E-04
(PID.TID 0000.0001) %MON trcstat_ptracer95_min        =  -9.2295481312063846E-10
(PID.TID 0000.0001) %MON trcstat_ptracer95_mean       =   8.9360839496940366E-07
(PID.TID 0000.0001) %MON trcstat_ptracer95_sd         =   6.1604056159370709E-06
(PID.TID 0000.0001) %MON trcstat_ptracer95_del2       =   3.0831826876464158E-08
(PID.TID 0000.0001) %MON trcstat_ptracer96_max        =   3.7910581009250791E-04
(PID.TID 0000.0001) %MON trcstat_ptracer96_min        =   5.3533548118859139E-10
(PID.TID 0000.0001) %MON trcstat_ptracer96_mean       =   8.9365469457926920E-07
(PID.TID 0000.0001) %MON trcstat_ptracer96_sd         =   6.0551059992723686E-06
(PID.TID 0000.0001) %MON trcstat_ptracer96_del2       =   3.0133916974382587E-08
(PID.TID 0000.0001) %MON trcstat_ptracer97_max        =   3.7691980680464309E-04
(PID.TID 0000.0001) %MON trcstat_ptracer97_min        =   9.3336706281103743E-10
(PID.TID 0000.0001) %MON trcstat_ptracer97_mean       =   8.9372639071831436E-07
(PID.TID 0000.0001) %MON trcstat_ptracer97_sd         =   5.9290085690937424E-06
(PID.TID 0000.0001) %MON trcstat_ptracer97_del2       =   2.9365513358596550E-08
(PID.TID 0000.0001) %MON trcstat_ptracer98_max        =   4.6352220956566502E-04
(PID.TID 0000.0001) %MON trcstat_ptracer98_min        =  -8.5838433167106554E-09
(PID.TID 0000.0001) %MON trcstat_ptracer98_mean       =   9.0578916479351036E-07
(PID.TID 0000.0001) %MON trcstat_ptracer98_sd         =   6.7089080191710471E-06
(PID.TID 0000.0001) %MON trcstat_ptracer98_del2       =   3.4954846038211802E-08
(PID.TID 0000.0001) %MON trcstat_ptracer99_max        =   4.6350493214059068E-04
(PID.TID 0000.0001) %MON trcstat_ptracer99_min        =  -8.5838433198043920E-09
(PID.TID 0000.0001) %MON trcstat_ptracer99_mean       =   9.0578464914498544E-07
(PID.TID 0000.0001) %MON trcstat_ptracer99_sd         =   6.7087067804127501E-06
(PID.TID 0000.0001) %MON trcstat_ptracer99_del2       =   3.4953573982702687E-08
(PID.TID 0000.0001) %MON trcstat_ptracer0a_max        =   4.6349087888886061E-04
(PID.TID 0000.0001) %MON trcstat_ptracer0a_min        =  -8.5838433218255565E-09
(PID.TID 0000.0001) %MON trcstat_ptracer0a_mean       =   9.0578099207538556E-07
(PID.TID 0000.0001) %MON trcstat_ptracer0a_sd         =   6.7085442786620402E-06
(PID.TID 0000.0001) %MON trcstat_ptracer0a_del2       =   3.4952546257101191E-08
(PID.TID 0000.0001) %MON trcstat_ptracer0b_max        =   4.6347943431418155E-04
(PID.TID 0000.0001) %MON trcstat_ptracer0b_min        =  -8.5838433230354620E-09
(PID.TID 0000.0001) %MON trcstat_ptracer0b_mean       =   9.0577802868142815E-07
(PID.TID 0000.0001) %MON trcstat_ptracer0b_sd         =   6.7084129976723837E-06
(PID.TID 0000.0001) %MON trcstat_ptracer0b_del2       =   3.4951714747317604E-08
(PID.TID 0000.0001) %MON trcstat_ptracer0c_max        =   4.6347010165603901E-04
(PID.TID 0000.0001) %MON trcstat_ptracer0c_min        =  -8.5838433236384469E-09
(PID.TID 0000.0001) %MON trcstat_ptracer0c_mean       =   9.0577562575835745E-07
(PID.TID 0000.0001) %MON trcstat_ptracer0c_sd         =   6.7083068844947060E-06
(PID.TID 0000.0001) %MON trcstat_ptracer0c_del2       =   3.4951041009845735E-08
(PID.TID 0000.0001) %MON trcstat_ptracer0d_max        =   4.6346247993199398E-04
(PID.TID 0000.0001) %MON trcstat_ptracer0d_min        =  -8.5838433237936690E-09
(PID.TID 0000.0001) %MON trcstat_ptracer0d_mean       =   9.0577367579456114E-07
(PID.TID 0000.0001) %MON trcstat_ptracer0d_sd         =   6.7082210645829016E-06
(PID.TID 0000.0001) %MON trcstat_ptracer0d_del2       =   3.4950494300003291E-08
(PID.TID 0000.0001) %MON trcstat_ptracer0e_max        =   4.6345624540212213E-04
(PID.TID 0000.0001) %MON trcstat_ptracer0e_min        =  -8.5838433236246214E-09
(PID.TID 0000.0001) %MON trcstat_ptracer0e_mean       =   9.0577209196058921E-07
(PID.TID 0000.0001) %MON trcstat_ptracer0e_sd         =   6.7081516109031099E-06
(PID.TID 0000.0001) %MON trcstat_ptracer0e_del2       =   3.4950049976745142E-08
(PID.TID 0000.0001) %MON trcstat_ptracer0f_max        =   4.6345113661166591E-04
(PID.TID 0000.0001) %MON trcstat_ptracer0f_min        =  -8.5838433232265887E-09
(PID.TID 0000.0001) %MON trcstat_ptracer0f_mean       =   9.0577080420721618E-07
(PID.TID 0000.0001) %MON trcstat_ptracer0f_sd         =   6.7080953607855429E-06
(PID.TID 0000.0001) %MON trcstat_ptracer0f_del2       =   3.4949688274429971E-08
(PID.TID 0000.0001) %MON trcstat_ptracer0g_max        =   4.6344694232654769E-04
(PID.TID 0000.0001) %MON trcstat_ptracer0g_min        =  -8.5838433226726871E-09
(PID.TID 0000.0001) %MON trcstat_ptracer0g_mean       =   9.0576975600905855E-07
(PID.TID 0000.0001) %MON trcstat_ptracer0g_sd         =   6.7080497665847690E-06
(PID.TID 0000.0001) %MON trcstat_ptracer0g_del2       =   3.4949393321845561E-08
(PID.TID 0000.0001) %MON trcstat_ptracer0h_max        =   4.6344349180586813E-04
(PID.TID 0000.0001) %MON trcstat_ptracer0h_min        =  -8.5838433220186039E-09
(PID.TID 0000.0001) %MON trcstat_ptracer0h_mean       =   9.0576890171644654E-07
(PID.TID 0000.0001) %MON trcstat_ptracer0h_sd         =   6.7080127751748389E-06
(PID.TID 0000.0001) %MON trcstat_ptracer0h_del2       =   3.4949152360977933E-08
(PID.TID 0000.0001) %MON trcstat_ptracer0i_max        =   4.6344064696105338E-04
(PID.TID 0000.0001) %MON trcstat_ptracer0i_min        =  -8.5838433213063452E-09
(PID.TID 0000.0001) %MON trcstat_ptracer0i_mean       =   9.0576820447912984E-07
(PID.TID 0000.0001) %MON trcstat_ptracer0i_sd         =   6.7079827321488318E-06
(PID.TID 0000.0001) %MON trcstat_ptracer0i_del2       =   3.4948955127087460E-08
(PID.TID 0000.0001) %MON trcstat_ptracer0j_max        =   4.6343829603719648E-04
(PID.TID 0000.0001) %MON trcstat_ptracer0j_min        =  -8.5838433205672659E-09
(PID.TID 0000.0001) %MON trcstat_ptracer0j_mean       =   9.0576763454452634E-07
(PID.TID 0000.0001) %MON trcstat_ptracer0j_sd         =   6.7079583041866280E-06
(PID.TID 0000.0001) %MON trcstat_ptracer0j_del2       =   3.4948793353658829E-08
(PID.TID 0000.0001) %MON trcstat_ptracer0k_max        =   4.6343634852191192E-04
(PID.TID 0000.0001) %MON trcstat_ptracer0k_min        =  -8.5838433198243617E-09
(PID.TID 0000.0001) %MON trcstat_ptracer0k_mean       =   9.0576716788444574E-07
(PID.TID 0000.0001) %MON trcstat_ptracer0k_sd         =   6.7079384165365905E-06
(PID.TID 0000.0001) %MON trcstat_ptracer0k_del2       =   3.4948660377117744E-08
(PID.TID 0000.0001) %MON trcstat_ptracer0l_max        =   4.6343473104363229E-04
(PID.TID 0000.0001) %MON trcstat_ptracer0l_min        =  -8.5838433190942524E-09
(PID.TID 0000.0001) %MON trcstat_ptracer0l_mean       =   9.0576678508707274E-07
(PID.TID 0000.0001) %MON trcstat_ptracer0l_sd         =   6.7079222026696723E-06
(PID.TID 0000.0001) %MON trcstat_ptracer0l_del2       =   3.4948550820832338E-08
(PID.TID 0000.0001) %MON trcstat_ptracer0m_max        =   4.6343338406716096E-04
(PID.TID 0000.0001) %MON trcstat_ptracer0m_min        =  -8.5838433183885317E-09
(PID.TID 0000.0001) %MON trcstat_ptracer0m_mean       =   9.0576647046332321E-07
(PID.TID 0000.0001) %MON trcstat_ptracer0m_sd         =   6.7079089637382885E-06
(PID.TID 0000.0001) %MON trcstat_ptracer0m_del2       =   3.4948460342231603E-08
(PID.TID 0000.0001) %MON trcstat_ptracer0n_max        =   4.6343225923142778E-04
(PID.TID 0000.0001) %MON trcstat_ptracer0n_min        =  -8.5838433177150644E-09
(PID.TID 0000.0001) %MON trcstat_ptracer0n_mean       =   9.0576621132639314E-07
(PID.TID 0000.0001) %MON trcstat_ptracer0n_sd         =   6.7078981359346910E-06
(PID.TID 0000.0001) %MON trcstat_ptracer0n_del2       =   3.4948385430255630E-08
(PID.TID 0000.0001) %MON trcstat_ptracer0o_max        =   4.6343131720442515E-04
(PID.TID 0000.0001) %MON trcstat_ptracer0o_min        =  -8.5838433170787806E-09
(PID.TID 0000.0001) %MON trcstat_ptracer0o_mean       =   9.0576599741089100E-07
(PID.TID 0000.0001) %MON trcstat_ptracer0o_sd         =   6.7078892642102486E-06
(PID.TID 0000.0001) %MON trcstat_ptracer0o_del2       =   3.4948323242986499E-08
(PID.TID 0000.0001) %MON trcstat_ptracer0p_max        =   4.6343052595457457E-04
(PID.TID 0000.0001) %MON trcstat_ptracer0p_min        =  -8.5838433164824247E-09
(PID.TID 0000.0001) %MON trcstat_ptracer0p_mean       =   9.0576582040487536E-07
(PID.TID 0000.0001) %MON trcstat_ptracer0p_sd         =   6.7078819811197556E-06
(PID.TID 0000.0001) %MON trcstat_ptracer0p_del2       =   3.4948271477399760E-08
(PID.TID 0000.0001) %MON trcstat_ptracer0q_max        =   4.6342985935735411E-04
(PID.TID 0000.0001) %MON trcstat_ptracer0q_min        =  -8.5838433159271714E-09
(PID.TID 0000.0001) %MON trcstat_ptracer0q_mean       =   9.0576567357261181E-07
(PID.TID 0000.0001) %MON trcstat_ptracer0q_sd         =   6.7078759897914953E-06
(PID.TID 0000.0001) %MON trcstat_ptracer0q_del2       =   3.4948228264809773E-08
(PID.TID 0000.0001) %MON trcstat_ptracer0r_max        =   4.6342929607182663E-04
(PID.TID 0000.0001) %MON trcstat_ptracer0r_min        =  -8.5838433154129745E-09
(PID.TID 0000.0001) %MON trcstat_ptracer0r_mean       =   9.0576555145071242E-07
(PID.TID 0000.0001) %MON trcstat_ptracer0r_sd         =   6.7078710502194438E-06
(PID.TID 0000.0001) %MON trcstat_ptracer0r_del2       =   3.4948192086889743E-08
(PID.TID 0000.0001) %MON trcstat_ptracer0s_max        =   4.6342881863445297E-04
(PID.TID 0000.0001) %MON trcstat_ptracer0s_min        =  -8.5838433149389437E-09
(PID.TID 0000.0001) %MON trcstat_ptracer0s_mean       =   9.0576544960313383E-07
(PID.TID 0000.0001) %MON trcstat_ptracer0s_sd         =   6.7078669682298121E-06
(PID.TID 0000.0001) %MON trcstat_ptracer0s_del2       =   3.4948161708173911E-08
(PID.TID 0000.0001) %MON trcstat_ptracer0t_max        =   4.6342841272783698E-04
(PID.TID 0000.0001) %MON trcstat_ptracer0t_min        =  -8.5838433145036217E-09
(PID.TID 0000.0001) %MON trcstat_ptracer0t_mean       =   9.0576536442393195E-07
(PID.TID 0000.0001) %MON trcstat_ptracer0t_sd         =   6.7078635866008238E-06
(PID.TID 0000.0001) %MON trcstat_ptracer0t_del2       =   3.4948136121777503E-08
(PID.TID 0000.0001) %MON trcstat_ptracer0u_max        =   4.6342806659032234E-04
(PID.TID 0000.0001) %MON trcstat_ptracer0u_min        =  -8.5838433141051539E-09
(PID.TID 0000.0001) %MON trcstat_ptracer0u_mean       =   9.0576529297813984E-07
(PID.TID 0000.0001) %MON trcstat_ptracer0u_sd         =   6.7078607779127789E-06
(PID.TID 0000.0001) %MON trcstat_ptracer0u_del2       =   3.4948114505715932E-08
(PID.TID 0000.0001) %MON trcstat_ptracer0v_max        =   4.6342777053902428E-04
(PID.TID 0000.0001) %MON trcstat_ptracer0v_min        =  -8.5838433137413946E-09
(PID.TID 0000.0001) %MON trcstat_ptracer0v_mean       =   9.0576523287360623E-07
(PID.TID 0000.0001) %MON trcstat_ptracer0v_sd         =   6.7078584387942873E-06
(PID.TID 0000.0001) %MON trcstat_ptracer0v_del2       =   3.4948096187732412E-08
(PID.TID 0000.0001) %MON trcstat_ptracer0w_max        =   4.6342751658423235E-04
(PID.TID 0000.0001) %MON trcstat_ptracer0w_min        =  -8.5838433134101452E-09
(PID.TID 0000.0001) %MON trcstat_ptracer0w_mean       =   9.0576518215760634E-07
(PID.TID 0000.0001) %MON trcstat_ptracer0w_sd         =   6.7078564852879101E-06
(PID.TID 0000.0001) %MON trcstat_ptracer0w_del2       =   3.4948080616956864E-08
(PID.TID 0000.0001) %MON trcstat_ptracer0x_max        =   4.6342729811743561E-04
(PID.TID 0000.0001) %MON trcstat_ptracer0x_min        =  -8.5838433131091143E-09
(PID.TID 0000.0001) %MON trcstat_ptracer0x_mean       =   9.0576513923347694E-07
(PID.TID 0000.0001) %MON trcstat_ptracer0x_sd         =   6.7078548491193120E-06
(PID.TID 0000.0001) %MON trcstat_ptracer0x_del2       =   3.4948067341054131E-08
(PID.TID 0000.0001) %MON trcstat_ptracer0y_max        =   4.6342710965869232E-04
(PID.TID 0000.0001) %MON trcstat_ptracer0y_min        =  -8.5838433128360455E-09
(PID.TID 0000.0001) %MON trcstat_ptracer0y_mean       =   9.0576510279332313E-07
(PID.TID 0000.0001) %MON trcstat_ptracer0y_sd         =   6.7078534746913400E-06
(PID.TID 0000.0001) %MON trcstat_ptracer0y_del2       =   3.4948055987781445E-08
(PID.TID 0000.0001) %MON trcstat_ptracer0z_max        =   4.6342694665185447E-04
(PID.TID 0000.0001) %MON trcstat_ptracer0z_min        =  -8.5838433125887118E-09
(PID.TID 0000.0001) %MON trcstat_ptracer0z_mean       =   9.0576507176373340E-07
(PID.TID 0000.0001) %MON trcstat_ptracer0z_sd         =   6.7078523166626754E-06
(PID.TID 0000.0001) %MON trcstat_ptracer0z_del2       =   3.4948046250095389E-08
(PID.TID 0000.0001) %MON trcstat_ptracer0A_max        =   4.6342680529840025E-04
(PID.TID 0000.0001) %MON trcstat_ptracer0A_min        =  -8.5838433123650141E-09
(PID.TID 0000.0001) %MON trcstat_ptracer0A_mean       =   9.0576504526189911E-07
(PID.TID 0000.0001) %MON trcstat_ptracer0A_sd         =   6.7078513379956014E-06
(PID.TID 0000.0001) %MON trcstat_ptracer0A_del2       =   3.4948037874110723E-08
(PID.TID 0000.0001) %MON trcstat_ptracer0B_max        =   4.6342668242243428E-04
(PID.TID 0000.0001) %MON trcstat_ptracer0B_min        =  -8.5838433121629090E-09
(PID.TID 0000.0001) %MON trcstat_ptracer0B_mean       =   9.0576502256017310E-07
(PID.TID 0000.0001) %MON trcstat_ptracer0B_sd         =   6.7078505083822221E-06
(PID.TID 0000.0001) %MON trcstat_ptracer0B_del2       =   3.4948030649358691E-08
(PID.TID 0000.0001) %MON trcstat_ptracer0C_max        =   1.5300953952238715E-07
(PID.TID 0000.0001) %MON trcstat_ptracer0C_min        =  -1.0172195749274247E-12
(PID.TID 0000.0001) %MON trcstat_ptracer0C_mean       =   2.0940579957538108E-10
(PID.TID 0000.0001) %MON trcstat_ptracer0C_sd         =   1.5169932763743215E-09
(PID.TID 0000.0001) %MON trcstat_ptracer0C_del2       =   7.4346217035842910E-12
(PID.TID 0000.0001) %MON trcstat_ptracer0D_max        =   1.5135936812239249E-07
(PID.TID 0000.0001) %MON trcstat_ptracer0D_min        =  -9.9176935427887985E-13
(PID.TID 0000.0001) %MON trcstat_ptracer0D_mean       =   1.9661960572056028E-10
(PID.TID 0000.0001) %MON trcstat_ptracer0D_sd         =   1.4280763150755852E-09
(PID.TID 0000.0001) %MON trcstat_ptracer0D_del2       =   6.8626262409565338E-12
(PID.TID 0000.0001) %MON trcstat_ptracer0E_max        =   1.6477767141119539E-07
(PID.TID 0000.0001) %MON trcstat_ptracer0E_min        =  -9.3464443062938844E-13
(PID.TID 0000.0001) %MON trcstat_ptracer0E_mean       =   1.9461699932356250E-10
(PID.TID 0000.0001) %MON trcstat_ptracer0E_sd         =   1.4442259147702260E-09
(PID.TID 0000.0001) %MON trcstat_ptracer0E_del2       =   6.9874101818323173E-12
(PID.TID 0000.0001) %MON trcstat_ptracer0F_max        =   1.4145849143534320E-07
(PID.TID 0000.0001) %MON trcstat_ptracer0F_min        =  -8.5299396008091863E-13
(PID.TID 0000.0001) %MON trcstat_ptracer0F_mean       =   1.6989482621253367E-10
(PID.TID 0000.0001) %MON trcstat_ptracer0F_sd         =   1.2547205117684245E-09
(PID.TID 0000.0001) %MON trcstat_ptracer0F_del2       =   6.1066744070839820E-12
(PID.TID 0000.0001) %MON trcstat_ptracer0G_max        =   1.2075571174862160E-07
(PID.TID 0000.0001) %MON trcstat_ptracer0G_min        =  -7.7874919095275570E-13
(PID.TID 0000.0001) %MON trcstat_ptracer0G_mean       =   1.4797802743910215E-10
(PID.TID 0000.0001) %MON trcstat_ptracer0G_sd         =   1.0886245041971311E-09
(PID.TID 0000.0001) %MON trcstat_ptracer0G_del2       =   5.3270781675976901E-12
(PID.TID 0000.0001) %MON trcstat_ptracer0H_max        =   1.2768971696521257E-07
(PID.TID 0000.0001) %MON trcstat_ptracer0H_min        =  -7.1182187938675998E-13
(PID.TID 0000.0001) %MON trcstat_ptracer0H_mean       =   1.4205111277824666E-10
(PID.TID 0000.0001) %MON trcstat_ptracer0H_sd         =   1.0690361093738275E-09
(PID.TID 0000.0001) %MON trcstat_ptracer0H_del2       =   5.2736075078358318E-12
(PID.TID 0000.0001) %MON trcstat_ptracer0I_max        =   1.0506158245335053E-07
(PID.TID 0000.0001) %MON trcstat_ptracer0I_min        =  -6.5002661033761798E-13
(PID.TID 0000.0001) %MON trcstat_ptracer0I_mean       =   1.2240455798927050E-10
(PID.TID 0000.0001) %MON trcstat_ptracer0I_sd         =   9.1228385260324323E-10
(PID.TID 0000.0001) %MON trcstat_ptracer0I_del2       =   4.5091851284594185E-12
(PID.TID 0000.0001) %MON trcstat_ptracer0J_max        =   8.6704988121703167E-08
(PID.TID 0000.0001) %MON trcstat_ptracer0J_min        =  -5.9444344778648024E-13
(PID.TID 0000.0001) %MON trcstat_ptracer0J_mean       =   1.0615082573478673E-10
(PID.TID 0000.0001) %MON trcstat_ptracer0J_sd         =   7.8472631963367809E-10
(PID.TID 0000.0001) %MON trcstat_ptracer0J_del2       =   3.8874064471687541E-12
(PID.TID 0000.0001) %MON trcstat_ptracer0K_max        =   7.1877315813091364E-08
(PID.TID 0000.0001) %MON trcstat_ptracer0K_min        =  -5.4367745606520016E-13
(PID.TID 0000.0001) %MON trcstat_ptracer0K_mean       =   9.2779745495495575E-11
(PID.TID 0000.0001) %MON trcstat_ptracer0K_sd         =   6.8134497113293558E-10
(PID.TID 0000.0001) %MON trcstat_ptracer0K_del2       =   3.3839482674301561E-12
(PID.TID 0000.0001) %MON trcstat_ptracer0L_max        =   5.9749954044688698E-08
(PID.TID 0000.0001) %MON trcstat_ptracer0L_min        =  -4.9625212004381866E-13
(PID.TID 0000.0001) %MON trcstat_ptracer0L_mean       =   8.1720244495330422E-11
(PID.TID 0000.0001) %MON trcstat_ptracer0L_sd         =   5.9689560903974563E-10
(PID.TID 0000.0001) %MON trcstat_ptracer0L_del2       =   2.9730218517638145E-12
(PID.TID 0000.0001) %MON trcstat_ptracer0M_max        =   6.3128860512410547E-08
(PID.TID 0000.0001) %MON trcstat_ptracer0M_min        =  -4.5155827891484456E-13
(PID.TID 0000.0001) %MON trcstat_ptracer0M_mean       =   7.8922907038685378E-11
(PID.TID 0000.0001) %MON trcstat_ptracer0M_sd         =   5.8472043437047130E-10
(PID.TID 0000.0001) %MON trcstat_ptracer0M_del2       =   2.9241764534430179E-12
(PID.TID 0000.0001) %MON trcstat_ptracer0N_max        =   5.2009085228995354E-08
(PID.TID 0000.0001) %MON trcstat_ptracer0N_min        =  -4.0934335967760136E-13
(PID.TID 0000.0001) %MON trcstat_ptracer0N_mean       =   6.9969305433197845E-11
(PID.TID 0000.0001) %MON trcstat_ptracer0N_sd         =   5.1392144941587635E-10
(PID.TID 0000.0001) %MON trcstat_ptracer0N_del2       =   2.5760531893275553E-12
(PID.TID 0000.0001) %MON trcstat_ptracer0O_max        =   4.3279858320900843E-08
(PID.TID 0000.0001) %MON trcstat_ptracer0O_min        =  -3.8238157447715282E-13
(PID.TID 0000.0001) %MON trcstat_ptracer0O_mean       =   6.2860986197184068E-11
(PID.TID 0000.0001) %MON trcstat_ptracer0O_sd         =   4.5864659194799698E-10
(PID.TID 0000.0001) %MON trcstat_ptracer0O_del2       =   2.3050983889834360E-12
(PID.TID 0000.0001) %MON trcstat_ptracer0P_max        =   3.6360708080966903E-08
(PID.TID 0000.0001) %MON trcstat_ptracer0P_min        =  -3.6351082342379988E-13
(PID.TID 0000.0001) %MON trcstat_ptracer0P_mean       =   5.7222108692433310E-11
(PID.TID 0000.0001) %MON trcstat_ptracer0P_sd         =   4.1532915378811988E-10
(PID.TID 0000.0001) %MON trcstat_ptracer0P_del2       =   2.0934043932326533E-12
(PID.TID 0000.0001) %MON trcstat_ptracer0Q_max        =   3.0800269101435909E-08
(PID.TID 0000.0001) %MON trcstat_ptracer0Q_min        =  -3.4621057059890772E-13
(PID.TID 0000.0001) %MON trcstat_ptracer0Q_mean       =   5.2773331264535914E-11
(PID.TID 0000.0001) %MON trcstat_ptracer0Q_sd         =   3.8157645884421236E-10
(PID.TID 0000.0001) %MON trcstat_ptracer0Q_del2       =   1.9284069797322281E-12
(PID.TID 0000.0001) %MON trcstat_ptracer0R_max        =   2.6477023125130553E-08
(PID.TID 0000.0001) %MON trcstat_ptracer0R_min        =  -3.2922706369734350E-13
(PID.TID 0000.0001) %MON trcstat_ptracer0R_mean       =   4.9335593857497283E-11
(PID.TID 0000.0001) %MON trcstat_ptracer0R_sd         =   3.5567761933765472E-10
(PID.TID 0000.0001) %MON trcstat_ptracer0R_del2       =   1.8013665776289889E-12
(PID.TID 0000.0001) %MON trcstat_ptracer0S_max        =   2.3023111563117019E-08
(PID.TID 0000.0001) %MON trcstat_ptracer0S_min        =  -3.1137021219207418E-13
(PID.TID 0000.0001) %MON trcstat_ptracer0S_mean       =   4.6693756189785068E-11
(PID.TID 0000.0001) %MON trcstat_ptracer0S_sd         =   3.3574707240643175E-10
(PID.TID 0000.0001) %MON trcstat_ptracer0S_del2       =   1.7028823656212720E-12
(PID.TID 0000.0001) %MON trcstat_ptracer0T_max        =   2.0331355387023683E-08
(PID.TID 0000.0001) %MON trcstat_ptracer0T_min        =  -2.9115945048488761E-13
(PID.TID 0000.0001) %MON trcstat_ptracer0T_mean       =   4.4696425056941972E-11
(PID.TID 0000.0001) %MON trcstat_ptracer0T_sd         =   3.2044406936669239E-10
(PID.TID 0000.0001) %MON trcstat_ptracer0T_del2       =   1.6259210802434773E-12
(PID.TID 0000.0001) %MON trcstat_ptracer0U_max        =   1.9160742275410595E-08
(PID.TID 0000.0001) %MON trcstat_ptracer0U_min        =  -2.6662078306654575E-13
(PID.TID 0000.0001) %MON trcstat_ptracer0U_mean       =   4.3205622946807464E-11
(PID.TID 0000.0001) %MON trcstat_ptracer0U_sd         =   3.0854384709510422E-10
(PID.TID 0000.0001) %MON trcstat_ptracer0U_del2       =   1.5644499633432263E-12
(PID.TID 0000.0001) %MON trcstat_ptracer0V_max        =   1.8540473984079071E-08
(PID.TID 0000.0001) %MON trcstat_ptracer0V_min        =  -2.3497228012650603E-13
(PID.TID 0000.0001) %MON trcstat_ptracer0V_mean       =   4.2109152033205562E-11
(PID.TID 0000.0001) %MON trcstat_ptracer0V_sd         =   2.9907703277898349E-10
(PID.TID 0000.0001) %MON trcstat_ptracer0V_del2       =   1.5136565642500430E-12
(PID.TID 0000.0001) %MON trcstat_ptracer0W_max        =   1.7877319041428409E-08
(PID.TID 0000.0001) %MON trcstat_ptracer0W_min        =  -1.9203903409376569E-13
(PID.TID 0000.0001) %MON trcstat_ptracer0W_mean       =   4.1313345486541164E-11
(PID.TID 0000.0001) %MON trcstat_ptracer0W_sd         =   2.9121738224941161E-10
(PID.TID 0000.0001) %MON trcstat_ptracer0W_del2       =   1.4695035003154627E-12
(PID.TID 0000.0001) %MON trcstat_ptracer0X_max        =   1.7132675947993644E-08
(PID.TID 0000.0001) %MON trcstat_ptracer0X_min        =  -1.3149211881756990E-13
(PID.TID 0000.0001) %MON trcstat_ptracer0X_mean       =   4.0743592563155591E-11
(PID.TID 0000.0001) %MON trcstat_ptracer0X_sd         =   2.8429873177202769E-10
(PID.TID 0000.0001) %MON trcstat_ptracer0X_del2       =   1.4287800935159813E-12
(PID.TID 0000.0001) %MON trcstat_ptracer0Y_max        =   1.7007222894432950E-08
(PID.TID 0000.0001) %MON trcstat_ptracer0Y_min        =  -4.1986188640071664E-14
(PID.TID 0000.0001) %MON trcstat_ptracer0Y_mean       =   4.0340869514398042E-11
(PID.TID 0000.0001) %MON trcstat_ptracer0Y_sd         =   2.7777395726202785E-10
(PID.TID 0000.0001) %MON trcstat_ptracer0Y_del2       =   1.3890713199240894E-12
(PID.TID 0000.0001) %MON trcstat_ptracer0Z_max        =   1.6903561828525813E-08
(PID.TID 0000.0001) %MON trcstat_ptracer0Z_min        =   2.3654383983872911E-14
(PID.TID 0000.0001) %MON trcstat_ptracer0Z_mean       =   4.0059411123739031E-11
(PID.TID 0000.0001) %MON trcstat_ptracer0Z_sd         =   2.7122707828695902E-10
(PID.TID 0000.0001) %MON trcstat_ptracer0Z_del2       =   1.3490562038161787E-12
(PID.TID 0000.0001) %MON trcstat_ptracer1a_max        =   1.6756241033092666E-08
(PID.TID 0000.0001) %MON trcstat_ptracer1a_min        =   4.1306176558722717E-14
(PID.TID 0000.0001) %MON trcstat_ptracer1a_mean       =   3.9864667520622603E-11
(PID.TID 0000.0001) %MON trcstat_ptracer1a_sd         =   2.6434547770233814E-10
(PID.TID 0000.0001) %MON trcstat_ptracer1a_del2       =   1.3087656124964966E-12
(PID.TID 0000.0001) %MON trcstat_ptracer1b_max        =   2.2003352247082685E-08
(PID.TID 0000.0001) %MON trcstat_ptracer1b_min        =  -3.7870348424288651E-13
(PID.TID 0000.0001) %MON trcstat_ptracer1b_mean       =   4.0156778187465598E-11
(PID.TID 0000.0001) %MON trcstat_ptracer1b_sd         =   3.0243925776424625E-10
(PID.TID 0000.0001) %MON trcstat_ptracer1b_del2       =   1.6148050069545846E-12
(PID.TID 0000.0001) %MON trcstat_ptracer1c_max        =   2.1519215842959590E-08
(PID.TID 0000.0001) %MON trcstat_ptracer1c_min        =  -3.7870291841925368E-13
(PID.TID 0000.0001) %MON trcstat_ptracer1c_mean       =   4.0136134878354859E-11
(PID.TID 0000.0001) %MON trcstat_ptracer1c_sd         =   3.0172201505448546E-10
(PID.TID 0000.0001) %MON trcstat_ptracer1c_del2       =   1.6066623308731595E-12
(PID.TID 0000.0001) %MON trcstat_ptracer1d_max        =   2.1406520607730605E-08
(PID.TID 0000.0001) %MON trcstat_ptracer1d_min        =  -3.7870241199698808E-13
(PID.TID 0000.0001) %MON trcstat_ptracer1d_mean       =   4.0117659263276744E-11
(PID.TID 0000.0001) %MON trcstat_ptracer1d_sd         =   3.0108681588848180E-10
(PID.TID 0000.0001) %MON trcstat_ptracer1d_del2       =   1.5994668241942506E-12
(PID.TID 0000.0001) %MON trcstat_ptracer1e_max        =   2.1305646298247105E-08
(PID.TID 0000.0001) %MON trcstat_ptracer1e_min        =  -3.7870195873962599E-13
(PID.TID 0000.0001) %MON trcstat_ptracer1e_mean       =   4.0101123456661321E-11
(PID.TID 0000.0001) %MON trcstat_ptracer1e_sd         =   3.0052372396505717E-10
(PID.TID 0000.0001) %MON trcstat_ptracer1e_del2       =   1.5931014342399752E-12
(PID.TID 0000.0001) %MON trcstat_ptracer1f_max        =   2.1215353741445389E-08
(PID.TID 0000.0001) %MON trcstat_ptracer1f_min        =  -3.7870155306553713E-13
(PID.TID 0000.0001) %MON trcstat_ptracer1f_mean       =   4.0086323614628635E-11
(PID.TID 0000.0001) %MON trcstat_ptracer1f_sd         =   3.0002410860055218E-10
(PID.TID 0000.0001) %MON trcstat_ptracer1f_del2       =   1.5874645572454137E-12
(PID.TID 0000.0001) %MON trcstat_ptracer1g_max        =   2.1134533534340041E-08
(PID.TID 0000.0001) %MON trcstat_ptracer1g_min        =  -3.7870118997915069E-13
(PID.TID 0000.0001) %MON trcstat_ptracer1g_mean       =   4.0073077376192259E-11
(PID.TID 0000.0001) %MON trcstat_ptracer1g_sd         =   2.9958044529100284E-10
(PID.TID 0000.0001) %MON trcstat_ptracer1g_del2       =   1.5824687446217400E-12
(PID.TID 0000.0001) %MON trcstat_ptracer1h_max        =   2.1062192474534789E-08
(PID.TID 0000.0001) %MON trcstat_ptracer1h_min        =  -3.7870086500941030E-13
(PID.TID 0000.0001) %MON trcstat_ptracer1h_mean       =   4.0061221580559798E-11
(PID.TID 0000.0001) %MON trcstat_ptracer1h_sd         =   2.9918615814102018E-10
(PID.TID 0000.0001) %MON trcstat_ptracer1h_del2       =   1.5780373513266677E-12
(PID.TID 0000.0001) %MON trcstat_ptracer1i_max        =   2.0997441407154177E-08
(PID.TID 0000.0001) %MON trcstat_ptracer1i_min        =  -3.7870057415468934E-13
(PID.TID 0000.0001) %MON trcstat_ptracer1i_mean       =   4.0050610227466510E-11
(PID.TID 0000.0001) %MON trcstat_ptracer1i_sd         =   2.9883553064617769E-10
(PID.TID 0000.0001) %MON trcstat_ptracer1i_del2       =   1.5741031793353648E-12
(PID.TID 0000.0001) %MON trcstat_ptracer1j_max        =   2.0939484340390766E-08
(PID.TID 0000.0001) %MON trcstat_ptracer1j_min        =  -3.7870031383349918E-13
(PID.TID 0000.0001) %MON trcstat_ptracer1j_mean       =   4.0041112668268813E-11
(PID.TID 0000.0001) %MON trcstat_ptracer1j_sd         =   2.9852353170962566E-10
(PID.TID 0000.0001) %MON trcstat_ptracer1j_del2       =   1.5706077852557688E-12
(PID.TID 0000.0001) %MON trcstat_ptracer1k_max        =   2.0887608697404765E-08
(PID.TID 0000.0001) %MON trcstat_ptracer1k_min        =  -3.7870008084036944E-13
(PID.TID 0000.0001) %MON trcstat_ptracer1k_mean       =   4.0032611981683021E-11
(PID.TID 0000.0001) %MON trcstat_ptracer1k_sd         =   2.9824574731975130E-10
(PID.TID 0000.0001) %MON trcstat_ptracer1k_del2       =   1.5675001521360813E-12
(PID.TID 0000.0001) %MON trcstat_ptracer1l_max        =   2.0841176586161313E-08
(PID.TID 0000.0001) %MON trcstat_ptracer1l_min        =  -3.7869987230636905E-13
(PID.TID 0000.0001) %MON trcstat_ptracer1l_mean       =   4.0025003528068291E-11
(PID.TID 0000.0001) %MON trcstat_ptracer1l_sd         =   2.9799829712687379E-10
(PID.TID 0000.0001) %MON trcstat_ptracer1l_del2       =   1.5647355371510894E-12
(PID.TID 0000.0001) %MON trcstat_ptracer1m_max        =   2.0799616981150858E-08
(PID.TID 0000.0001) %MON trcstat_ptracer1m_min        =  -3.7869968566376422E-13
(PID.TID 0000.0001) %MON trcstat_ptracer1m_mean       =   4.0018193656431068E-11
(PID.TID 0000.0001) %MON trcstat_ptracer1m_sd         =   2.9777776489941458E-10
(PID.TID 0000.0001) %MON trcstat_ptracer1m_del2       =   1.5622746617723252E-12
(PID.TID 0000.0001) %MON trcstat_ptracer1n_max        =   2.0762418721986921E-08
(PID.TID 0000.0001) %MON trcstat_ptracer1n_min        =  -3.7869951861439712E-13
(PID.TID 0000.0001) %MON trcstat_ptracer1n_mean       =   4.0012098548522065E-11
(PID.TID 0000.0001) %MON trcstat_ptracer1n_sd         =   2.9758113872405067E-10
(PID.TID 0000.0001) %MON trcstat_ptracer1n_del2       =   1.5600830016386976E-12
(PID.TID 0000.0001) %MON trcstat_ptracer1o_max        =   2.0729124243758208E-08
(PID.TID 0000.0001) %MON trcstat_ptracer1o_min        =  -3.7869936910138109E-13
(PID.TID 0000.0001) %MON trcstat_ptracer1o_mean       =   4.0006643185185557E-11
(PID.TID 0000.0001) %MON trcstat_ptracer1o_sd         =   2.9740575954385765E-10
(PID.TID 0000.0001) %MON trcstat_ptracer1o_del2       =   1.5581301613749126E-12
(PID.TID 0000.0001) %MON trcstat_ptracer1p_max        =   2.0699323962861999E-08
(PID.TID 0000.0001) %MON trcstat_ptracer1p_min        =  -3.7869923528376822E-13
(PID.TID 0000.0001) %MON trcstat_ptracer1p_mean       =   4.0001760421831286E-11
(PID.TID 0000.0001) %MON trcstat_ptracer1p_sd         =   2.9724927673632056E-10
(PID.TID 0000.0001) %MON trcstat_ptracer1p_del2       =   1.5563893205984619E-12
(PID.TID 0000.0001) %MON trcstat_ptracer1q_max        =   2.0672651249971662E-08
(PID.TID 0000.0001) %MON trcstat_ptracer1q_min        =  -3.7869911551387703E-13
(PID.TID 0000.0001) %MON trcstat_ptracer1q_mean       =   3.9997390161301567E-11
(PID.TID 0000.0001) %MON trcstat_ptracer1q_sd         =   2.9710961066579430E-10
(PID.TID 0000.0001) %MON trcstat_ptracer1q_del2       =   1.5548368840011408E-12
(PID.TID 0000.0001) %MON trcstat_ptracer1r_max        =   2.0648777928893881E-08
(PID.TID 0000.0001) %MON trcstat_ptracer1r_min        =  -3.7869900831700523E-13
(PID.TID 0000.0001) %MON trcstat_ptracer1r_mean       =   3.9993478614345322E-11
(PID.TID 0000.0001) %MON trcstat_ptracer1r_sd         =   2.9698491689378164E-10
(PID.TID 0000.0001) %MON trcstat_ptracer1r_del2       =   1.5534519260900911E-12
(PID.TID 0000.0001) %MON trcstat_ptracer1s_max        =   2.0627410246437101E-08
(PID.TID 0000.0001) %MON trcstat_ptracer1s_min        =  -3.7869891237326342E-13
(PID.TID 0000.0001) %MON trcstat_ptracer1s_mean       =   3.9989977636418897E-11
(PID.TID 0000.0001) %MON trcstat_ptracer1s_sd         =   2.9687356207997498E-10
(PID.TID 0000.0001) %MON trcstat_ptracer1s_del2       =   1.5522159779056631E-12
(PID.TID 0000.0001) %MON trcstat_ptracer1t_max        =   2.0608285264118339E-08
(PID.TID 0000.0001) %MON trcstat_ptracer1t_min        =  -3.7869882650132642E-13
(PID.TID 0000.0001) %MON trcstat_ptracer1t_mean       =   3.9986844135433625E-11
(PID.TID 0000.0001) %MON trcstat_ptracer1t_sd         =   2.9677409776394817E-10
(PID.TID 0000.0001) %MON trcstat_ptracer1t_del2       =   1.5511127066841161E-12
(PID.TID 0000.0001) %MON trcstat_ptracer1u_max        =   2.0591167627651208E-08
(PID.TID 0000.0001) %MON trcstat_ptracer1u_min        =  -3.7869874964388408E-13
(PID.TID 0000.0001) %MON trcstat_ptracer1u_mean       =   3.9984039542694155E-11
(PID.TID 0000.0001) %MON trcstat_ptracer1u_sd         =   2.9668523130710784E-10
(PID.TID 0000.0001) %MON trcstat_ptracer1u_del2       =   1.5501276010628207E-12
(PID.TID 0000.0001) %MON trcstat_ptracer1v_max        =   2.0575846674742871E-08
(PID.TID 0000.0001) %MON trcstat_ptracer1v_min        =  -3.7869868085462103E-13
(PID.TID 0000.0001) %MON trcstat_ptracer1v_mean       =   3.9981529336310400E-11
(PID.TID 0000.0001) %MON trcstat_ptracer1v_sd         =   2.9660582053567225E-10
(PID.TID 0000.0001) %MON trcstat_ptracer1v_del2       =   1.5492477944921379E-12
(PID.TID 0000.0001) %MON trcstat_ptracer1w_max        =   2.0562133845838504E-08
(PID.TID 0000.0001) %MON trcstat_ptracer1w_min        =  -3.7869861928656673E-13
(PID.TID 0000.0001) %MON trcstat_ptracer1w_mean       =   3.9979282617441051E-11
(PID.TID 0000.0001) %MON trcstat_ptracer1w_sd         =   2.9653484946086622E-10
(PID.TID 0000.0001) %MON trcstat_ptracer1w_del2       =   1.5484618624128442E-12
(PID.TID 0000.0001) %MON trcstat_ptracer1x_max        =   2.0549860366135948E-08
(PID.TID 0000.0001) %MON trcstat_ptracer1x_min        =  -3.7869856418166305E-13
(PID.TID 0000.0001) %MON trcstat_ptracer1x_mean       =   3.9977271730783203E-11
(PID.TID 0000.0001) %MON trcstat_ptracer1x_sd         =   2.9647141061676834E-10
(PID.TID 0000.0001) %MON trcstat_ptracer1x_del2       =   1.5477596329090531E-12
(PID.TID 0000.0001) %MON trcstat_ptracer1y_max        =   2.0538875170495989E-08
(PID.TID 0000.0001) %MON trcstat_ptracer1y_min        =  -3.7869851486143060E-13
(PID.TID 0000.0001) %MON trcstat_ptracer1y_mean       =   3.9975471922725353E-11
(PID.TID 0000.0001) %MON trcstat_ptracer1y_sd         =   2.9641469759590658E-10
(PID.TID 0000.0001) %MON trcstat_ptracer1y_del2       =   1.5471320925543883E-12
(PID.TID 0000.0001) %MON trcstat_ptracer1z_max        =   2.0529043045833196E-08
(PID.TID 0000.0001) %MON trcstat_ptracer1z_min        =  -3.7869847071861798E-13
(PID.TID 0000.0001) %MON trcstat_ptracer1z_mean       =   3.9973861038266892E-11
(PID.TID 0000.0001) %MON trcstat_ptracer1z_sd         =   2.9636398968663176E-10
(PID.TID 0000.0001) %MON trcstat_ptracer1z_del2       =   1.5465712090269908E-12
(PID.TID 0000.0001) %MON trcstat_ptracer1A_max        =   2.0520242968224812E-08
(PID.TID 0000.0001) %MON trcstat_ptracer1A_min        =  -3.7869843120971871E-13
(PID.TID 0000.0001) %MON trcstat_ptracer1A_mean       =   3.9972419247134928E-11
(PID.TID 0000.0001) %MON trcstat_ptracer1A_sd         =   2.9631864667446733E-10
(PID.TID 0000.0001) %MON trcstat_ptracer1A_del2       =   1.5460698309970465E-12
(PID.TID 0000.0001) %MON trcstat_ptracer1B_max        =   2.0512366614351851E-08
(PID.TID 0000.0001) %MON trcstat_ptracer1B_min        =  -3.7869839584828244E-13
(PID.TID 0000.0001) %MON trcstat_ptracer1B_mean       =   3.9971128800315690E-11
(PID.TID 0000.0001) %MON trcstat_ptracer1B_sd         =   2.9627809778224539E-10
(PID.TID 0000.0001) %MON trcstat_ptracer1B_del2       =   1.5456215886684348E-12
(PID.TID 0000.0001) %MON trcstat_ptracer1C_max        =   2.0505317029016572E-08
(PID.TID 0000.0001) %MON trcstat_ptracer1C_min        =  -3.7869836419892730E-13
(PID.TID 0000.0001) %MON trcstat_ptracer1C_mean       =   3.9969973811896088E-11
(PID.TID 0000.0001) %MON trcstat_ptracer1C_sd         =   2.9624183294564919E-10
(PID.TID 0000.0001) %MON trcstat_ptracer1C_del2       =   1.5452208042907904E-12
(PID.TID 0000.0001) %MON trcstat_ptracer1D_max        =   2.0499007432387658E-08
(PID.TID 0000.0001) %MON trcstat_ptracer1D_min        =  -3.7869833587197284E-13
(PID.TID 0000.0001) %MON trcstat_ptracer1D_mean       =   3.9968940063316903E-11
(PID.TID 0000.0001) %MON trcstat_ptracer1D_sd         =   2.9620939699684750E-10
(PID.TID 0000.0001) %MON trcstat_ptracer1D_del2       =   1.5448624158818850E-12
(PID.TID 0000.0001) %MON trcstat_ptracer1E_max        =   2.0493360152334650E-08
(PID.TID 0000.0001) %MON trcstat_ptracer1E_min        =  -3.7869831051864902E-13
(PID.TID 0000.0001) %MON trcstat_ptracer1E_mean       =   3.9968014828390192E-11
(PID.TID 0000.0001) %MON trcstat_ptracer1E_sd         =   2.9618038363144872E-10
(PID.TID 0000.0001) %MON trcstat_ptracer1E_del2       =   1.5445419087924801E-12
(PID.TID 0000.0001) %MON trcstat_ptracer1F_max        =   5.4230545288279893E-03
(PID.TID 0000.0001) %MON trcstat_ptracer1F_min        =  -9.0975953209323608E-08
(PID.TID 0000.0001) %MON trcstat_ptracer1F_mean       =   1.1075450468612751E-05
(PID.TID 0000.0001) %MON trcstat_ptracer1F_sd         =   8.0578250106969654E-05
(PID.TID 0000.0001) %MON trcstat_ptracer1F_del2       =   4.1996892503372370E-07
(PID.TID 0000.0001) %MON trcstat_ptracer1G_max        =   5.3613176080762638E-03
(PID.TID 0000.0001) %MON trcstat_ptracer1G_min        =  -9.0127539951907121E-08
(PID.TID 0000.0001) %MON trcstat_ptracer1G_mean       =   1.1030733560267591E-05
(PID.TID 0000.0001) %MON trcstat_ptracer1G_sd         =   8.0030214885478014E-05
(PID.TID 0000.0001) %MON trcstat_ptracer1G_del2       =   4.1403456034895638E-07
(PID.TID 0000.0001) %MON trcstat_ptracer1H_max        =   5.3275086890386247E-03
(PID.TID 0000.0001) %MON trcstat_ptracer1H_min        =  -8.9707917730123159E-08
(PID.TID 0000.0001) %MON trcstat_ptracer1H_mean       =   1.1502972632382742E-05
(PID.TID 0000.0001) %MON trcstat_ptracer1H_sd         =   8.2912929950870197E-05
(PID.TID 0000.0001) %MON trcstat_ptracer1H_del2       =   4.2559041743459028E-07
(PID.TID 0000.0001) %MON trcstat_ptracer1I_max        =   5.2275121535349774E-03
(PID.TID 0000.0001) %MON trcstat_ptracer1I_min        =  -8.9121043331013625E-08
(PID.TID 0000.0001) %MON trcstat_ptracer1I_mean       =   1.1105365066170705E-05
(PID.TID 0000.0001) %MON trcstat_ptracer1I_sd         =   8.0391474193536525E-05
(PID.TID 0000.0001) %MON trcstat_ptracer1I_del2       =   4.1221706727154333E-07
(PID.TID 0000.0001) %MON trcstat_ptracer1J_max        =   5.1261737683341519E-03
(PID.TID 0000.0001) %MON trcstat_ptracer1J_min        =  -8.8398291878230116E-08
(PID.TID 0000.0001) %MON trcstat_ptracer1J_mean       =   1.0837218688552010E-05
(PID.TID 0000.0001) %MON trcstat_ptracer1J_sd         =   7.8586992513289325E-05
(PID.TID 0000.0001) %MON trcstat_ptracer1J_del2       =   4.0248987042721902E-07
(PID.TID 0000.0001) %MON trcstat_ptracer1K_max        =   5.5515388433049727E-03
(PID.TID 0000.0001) %MON trcstat_ptracer1K_min        =  -8.7579381536703381E-08
(PID.TID 0000.0001) %MON trcstat_ptracer1K_mean       =   1.1192596024053482E-05
(PID.TID 0000.0001) %MON trcstat_ptracer1K_sd         =   8.0929469955748969E-05
(PID.TID 0000.0001) %MON trcstat_ptracer1K_del2       =   4.1277616420913283E-07
(PID.TID 0000.0001) %MON trcstat_ptracer1L_max        =   5.0114682803305399E-03
(PID.TID 0000.0001) %MON trcstat_ptracer1L_min        =  -8.6531970924135478E-08
(PID.TID 0000.0001) %MON trcstat_ptracer1L_mean       =   1.0767778338848607E-05
(PID.TID 0000.0001) %MON trcstat_ptracer1L_sd         =   7.8047360307510532E-05
(PID.TID 0000.0001) %MON trcstat_ptracer1L_del2       =   3.9862055679265132E-07
(PID.TID 0000.0001) %MON trcstat_ptracer1M_max        =   4.8503969044790237E-03
(PID.TID 0000.0001) %MON trcstat_ptracer1M_min        =  -8.5277285369817038E-08
(PID.TID 0000.0001) %MON trcstat_ptracer1M_mean       =   1.0417261084834937E-05
(PID.TID 0000.0001) %MON trcstat_ptracer1M_sd         =   7.5668409641032204E-05
(PID.TID 0000.0001) %MON trcstat_ptracer1M_del2       =   3.8674456276069944E-07
(PID.TID 0000.0001) %MON trcstat_ptracer1N_max        =   4.7581533903162257E-03
(PID.TID 0000.0001) %MON trcstat_ptracer1N_min        =  -8.3688873637078406E-08
(PID.TID 0000.0001) %MON trcstat_ptracer1N_mean       =   1.0130858141012017E-05
(PID.TID 0000.0001) %MON trcstat_ptracer1N_sd         =   7.3709249970121962E-05
(PID.TID 0000.0001) %MON trcstat_ptracer1N_del2       =   3.7680719933597774E-07
(PID.TID 0000.0001) %MON trcstat_ptracer1O_max        =   4.6753720437886547E-03
(PID.TID 0000.0001) %MON trcstat_ptracer1O_min        =  -8.1686783502232611E-08
(PID.TID 0000.0001) %MON trcstat_ptracer1O_mean       =   9.9002928131470305E-06
(PID.TID 0000.0001) %MON trcstat_ptracer1O_sd         =   7.2118246208453178E-05
(PID.TID 0000.0001) %MON trcstat_ptracer1O_del2       =   3.6878389564825945E-07
(PID.TID 0000.0001) %MON trcstat_ptracer1P_max        =   4.6183810539199427E-03
(PID.TID 0000.0001) %MON trcstat_ptracer1P_min        =  -7.9179060253437634E-08
(PID.TID 0000.0001) %MON trcstat_ptracer1P_mean       =   1.0012774568975957E-05
(PID.TID 0000.0001) %MON trcstat_ptracer1P_sd         =   7.2871018045182211E-05
(PID.TID 0000.0001) %MON trcstat_ptracer1P_del2       =   3.7228105594844006E-07
(PID.TID 0000.0001) %MON trcstat_ptracer1Q_max        =   4.5984052156026528E-03
(PID.TID 0000.0001) %MON trcstat_ptracer1Q_min        =  -7.7280184688266713E-08
(PID.TID 0000.0001) %MON trcstat_ptracer1Q_mean       =   9.7966670896831762E-06
(PID.TID 0000.0001) %MON trcstat_ptracer1Q_sd         =   7.1377040338262303E-05
(PID.TID 0000.0001) %MON trcstat_ptracer1Q_del2       =   3.6542679074430248E-07
(PID.TID 0000.0001) %MON trcstat_ptracer1R_max        =   4.5844340000990007E-03
(PID.TID 0000.0001) %MON trcstat_ptracer1R_min        =  -7.6455712958330225E-08
(PID.TID 0000.0001) %MON trcstat_ptracer1R_mean       =   9.6445568635781185E-06
(PID.TID 0000.0001) %MON trcstat_ptracer1R_sd         =   7.0307749646731765E-05
(PID.TID 0000.0001) %MON trcstat_ptracer1R_del2       =   3.6043525864289220E-07
(PID.TID 0000.0001) %MON trcstat_ptracer1S_max        =   4.5661848765808115E-03
(PID.TID 0000.0001) %MON trcstat_ptracer1S_min        =  -7.5367934955556571E-08
(PID.TID 0000.0001) %MON trcstat_ptracer1S_mean       =   9.5426853448180410E-06
(PID.TID 0000.0001) %MON trcstat_ptracer1S_sd         =   6.9551803548050078E-05
(PID.TID 0000.0001) %MON trcstat_ptracer1S_del2       =   3.5679433113156523E-07
(PID.TID 0000.0001) %MON trcstat_ptracer1T_max        =   4.5423676298901967E-03
(PID.TID 0000.0001) %MON trcstat_ptracer1T_min        =  -7.3956839232270440E-08
(PID.TID 0000.0001) %MON trcstat_ptracer1T_mean       =   9.4793885840746722E-06
(PID.TID 0000.0001) %MON trcstat_ptracer1T_sd         =   6.9020399857132973E-05
(PID.TID 0000.0001) %MON trcstat_ptracer1T_del2       =   3.5400255102704127E-07
(PID.TID 0000.0001) %MON trcstat_ptracer1U_max        =   4.5113223362639992E-03
(PID.TID 0000.0001) %MON trcstat_ptracer1U_min        =  -7.2061310275874117E-08
(PID.TID 0000.0001) %MON trcstat_ptracer1U_mean       =   9.4439356947871134E-06
(PID.TID 0000.0001) %MON trcstat_ptracer1U_sd         =   6.8630153377075714E-05
(PID.TID 0000.0001) %MON trcstat_ptracer1U_del2       =   3.5167268145786854E-07
(PID.TID 0000.0001) %MON trcstat_ptracer1V_max        =   4.4709220598071302E-03
(PID.TID 0000.0001) %MON trcstat_ptracer1V_min        =  -6.9496201560181643E-08
(PID.TID 0000.0001) %MON trcstat_ptracer1V_mean       =   9.4266010111021014E-06
(PID.TID 0000.0001) %MON trcstat_ptracer1V_sd         =   6.8304651284714231E-05
(PID.TID 0000.0001) %MON trcstat_ptracer1V_del2       =   3.4948400866250439E-07
(PID.TID 0000.0001) %MON trcstat_ptracer1W_max        =   4.4184614546916648E-03
(PID.TID 0000.0001) %MON trcstat_ptracer1W_min        =  -6.5992927763451376E-08
(PID.TID 0000.0001) %MON trcstat_ptracer1W_mean       =   9.4188009340683205E-06
(PID.TID 0000.0001) %MON trcstat_ptracer1W_sd         =   6.7974445818039871E-05
(PID.TID 0000.0001) %MON trcstat_ptracer1W_del2       =   3.4707876027303319E-07
(PID.TID 0000.0001) %MON trcstat_ptracer1X_max        =   4.3505336056602912E-03
(PID.TID 0000.0001) %MON trcstat_ptracer1X_min        =  -6.1152819845415813E-08
(PID.TID 0000.0001) %MON trcstat_ptracer1X_mean       =   9.4150250824254339E-06
(PID.TID 0000.0001) %MON trcstat_ptracer1X_sd         =   6.7590789836570640E-05
(PID.TID 0000.0001) %MON trcstat_ptracer1X_del2       =   3.4421782879622950E-07
(PID.TID 0000.0001) %MON trcstat_ptracer1Y_max        =   4.2629062956627758E-03
(PID.TID 0000.0001) %MON trcstat_ptracer1Y_min        =  -5.4378943074316333E-08
(PID.TID 0000.0001) %MON trcstat_ptracer1Y_mean       =   9.4132355891748820E-06
(PID.TID 0000.0001) %MON trcstat_ptracer1Y_sd         =   6.7120288328847852E-05
(PID.TID 0000.0001) %MON trcstat_ptracer1Y_del2       =   3.4070443156783004E-07
(PID.TID 0000.0001) %MON trcstat_ptracer1Z_max        =   4.1504211821369102E-03
(PID.TID 0000.0001) %MON trcstat_ptracer1Z_min        =  -4.4725248476250778E-08
(PID.TID 0000.0001) %MON trcstat_ptracer1Z_mean       =   9.4125826327875229E-06
(PID.TID 0000.0001) %MON trcstat_ptracer1Z_sd         =   6.6533634220641535E-05
(PID.TID 0000.0001) %MON trcstat_ptracer1Z_del2       =   3.3638562128939728E-07
(PID.TID 0000.0001) %MON trcstat_ptracer2a_max        =   4.0069600439882830E-03
(PID.TID 0000.0001) %MON trcstat_ptracer2a_min        =  -3.0737995626711163E-08
(PID.TID 0000.0001) %MON trcstat_ptracer2a_mean       =   9.4125770317469565E-06
(PID.TID 0000.0001) %MON trcstat_ptracer2a_sd         =   6.5801306667525049E-05
(PID.TID 0000.0001) %MON trcstat_ptracer2a_del2       =   3.3111039116429437E-07
(PID.TID 0000.0001) %MON trcstat_ptracer2b_max        =   4.0016948028996375E-03
(PID.TID 0000.0001) %MON trcstat_ptracer2b_min        =  -9.7221710870521113E-09
(PID.TID 0000.0001) %MON trcstat_ptracer2b_mean       =   9.4129499833751618E-06
(PID.TID 0000.0001) %MON trcstat_ptracer2b_sd         =   6.4891985840135355E-05
(PID.TID 0000.0001) %MON trcstat_ptracer2b_del2       =   3.2477464536347007E-07
(PID.TID 0000.0001) %MON trcstat_ptracer2c_max        =   3.9934060280842516E-03
(PID.TID 0000.0001) %MON trcstat_ptracer2c_min        =   5.6390882961375720E-09
(PID.TID 0000.0001) %MON trcstat_ptracer2c_mean       =   9.4135351442558871E-06
(PID.TID 0000.0001) %MON trcstat_ptracer2c_sd         =   6.3782972692200596E-05
(PID.TID 0000.0001) %MON trcstat_ptracer2c_del2       =   3.1742315105801132E-07
(PID.TID 0000.0001) %MON trcstat_ptracer2d_max        =   3.9703792081048741E-03
(PID.TID 0000.0001) %MON trcstat_ptracer2d_min        =   9.8318534747652354E-09
(PID.TID 0000.0001) %MON trcstat_ptracer2d_mean       =   9.4142903734619204E-06
(PID.TID 0000.0001) %MON trcstat_ptracer2d_sd         =   6.2454693881567881E-05
(PID.TID 0000.0001) %MON trcstat_ptracer2d_del2       =   3.0932897897125518E-07
(PID.TID 0000.0001) // =======================================================
(PID.TID 0000.0001) // End MONITOR ptracers field statistics
(PID.TID 0000.0001) // =======================================================
 Computing Diagnostic #    224  TRAC01       Counter:       1   Parms: SMR     MR      
 Computing Diagnostic #    236  TRAC02       Counter:       1   Parms: SMR     MR      
 Computing Diagnostic #    248  TRAC03       Counter:       1   Parms: SMR     MR      
 Computing Diagnostic #    260  TRAC04       Counter:       1   Parms: SMR     MR      
 Computing Diagnostic #    272  TRAC05       Counter:       1   Parms: SMR     MR      
 Computing Diagnostic #    284  TRAC06       Counter:       1   Parms: SMR     MR      
 Computing Diagnostic #    296  TRAC07       Counter:       1   Parms: SMR     MR      
 Computing Diagnostic #    308  TRAC08       Counter:       1   Parms: SMR     MR      
 Computing Diagnostic #    320  TRAC09       Counter:       1   Parms: SMR     MR      
 Computing Diagnostic #    332  TRAC10       Counter:       1   Parms: SMR     MR      
 Computing Diagnostic #    344  TRAC11       Counter:       1   Parms: SMR     MR      
 Computing Diagnostic #    356  TRAC12       Counter:       1   Parms: SMR     MR      
 Computing Diagnostic #    368  TRAC13       Counter:       1   Parms: SMR     MR      
 Computing Diagnostic #    380  TRAC14       Counter:       1   Parms: SMR     MR      
 Computing Diagnostic #    392  TRAC15       Counter:       1   Parms: SMR     MR      
 Computing Diagnostic #    404  TRAC16       Counter:       1   Parms: SMR     MR      
 Computing Diagnostic #    416  TRAC17       Counter:       1   Parms: SMR     MR      
 Computing Diagnostic #    428  TRAC18       Counter:       1   Parms: SMR     MR      
 Computing Diagnostic #    440  TRAC19       Counter:       1   Parms: SMR     MR      
 Computing Diagnostic #    452  TRAC20       Counter:       1   Parms: SMR     MR      
 Computing Diagnostic #    464  TRAC21       Counter:       1   Parms: SMR     MR      
 Computing Diagnostic #    476  TRAC22       Counter:       1   Parms: SMR     MR      
 Computing Diagnostic #    488  TRAC23       Counter:       1   Parms: SMR     MR      
 Computing Diagnostic #    500  TRAC24       Counter:       1   Parms: SMR     MR      
 Computing Diagnostic #    512  TRAC25       Counter:       1   Parms: SMR     MR      
 Computing Diagnostic #    524  TRAC26       Counter:       1   Parms: SMR     MR      
 Computing Diagnostic #    536  TRAC27       Counter:       1   Parms: SMR     MR      
 Computing Diagnostic #    548  TRAC28       Counter:       1   Parms: SMR     MR      
 Computing Diagnostic #    560  TRAC29       Counter:       1   Parms: SMR     MR      
 Computing Diagnostic #    572  TRAC30       Counter:       1   Parms: SMR     MR      
 Computing Diagnostic #    584  TRAC31       Counter:       1   Parms: SMR     MR      
 Computing Diagnostic #    596  TRAC32       Counter:       1   Parms: SMR     MR      
 Computing Diagnostic #    608  TRAC33       Counter:       1   Parms: SMR     MR      
 Computing Diagnostic #    620  TRAC34       Counter:       1   Parms: SMR     MR      
 Computing Diagnostic #    632  TRAC35       Counter:       1   Parms: SMR     MR      
 Computing Diagnostic #    644  TRAC36       Counter:       1   Parms: SMR     MR      
 Computing Diagnostic #    656  TRAC37       Counter:       1   Parms: SMR     MR      
 Computing Diagnostic #    668  TRAC38       Counter:       1   Parms: SMR     MR      
 Computing Diagnostic #    680  TRAC39       Counter:       1   Parms: SMR     MR      
 Computing Diagnostic #    692  TRAC40       Counter:       1   Parms: SMR     MR      
 Computing Diagnostic #    704  TRAC41       Counter:       1   Parms: SMR     MR      
 Computing Diagnostic #    716  TRAC42       Counter:       1   Parms: SMR     MR      
 Computing Diagnostic #    728  TRAC43       Counter:       1   Parms: SMR     MR      
 Computing Diagnostic #    740  TRAC44       Counter:       1   Parms: SMR     MR      
 Computing Diagnostic #    752  TRAC45       Counter:       1   Parms: SMR     MR      
 Computing Diagnostic #    764  TRAC46       Counter:       1   Parms: SMR     MR      
 Computing Diagnostic #    776  TRAC47       Counter:       1   Parms: SMR     MR      
 Computing Diagnostic #    788  TRAC48       Counter:       1   Parms: SMR     MR      
 Computing Diagnostic #    800  TRAC49       Counter:       1   Parms: SMR     MR      
 Computing Diagnostic #    812  TRAC50       Counter:       1   Parms: SMR     MR      
 Computing Diagnostic #    824  TRAC51       Counter:       1   Parms: SMR     MR      
 Computing Diagnostic #    836  TRAC52       Counter:       1   Parms: SMR     MR      
 Computing Diagnostic #    848  TRAC53       Counter:       1   Parms: SMR     MR      
 Computing Diagnostic #    860  TRAC54       Counter:       1   Parms: SMR     MR      
 Computing Diagnostic #    872  TRAC55       Counter:       1   Parms: SMR     MR      
 Computing Diagnostic #    884  TRAC56       Counter:       1   Parms: SMR     MR      
 Computing Diagnostic #    896  TRAC57       Counter:       1   Parms: SMR     MR      
 Computing Diagnostic #    908  TRAC58       Counter:       1   Parms: SMR     MR      
 Computing Diagnostic #    920  TRAC59       Counter:       1   Parms: SMR     MR      
 Computing Diagnostic #    932  TRAC60       Counter:       1   Parms: SMR     MR      
 Computing Diagnostic #    944  TRAC61       Counter:       1   Parms: SMR     MR      
 Computing Diagnostic #    956  TRAC62       Counter:       1   Parms: SMR     MR      
 Computing Diagnostic #    968  TRAC63       Counter:       1   Parms: SMR     MR      
 Computing Diagnostic #    980  TRAC64       Counter:       1   Parms: SMR     MR      
 Computing Diagnostic #    992  TRAC65       Counter:       1   Parms: SMR     MR      
 Computing Diagnostic #   1004  TRAC66       Counter:       1   Parms: SMR     MR      
 Computing Diagnostic #   1016  TRAC67       Counter:       1   Parms: SMR     MR      
 Computing Diagnostic #   1028  TRAC68       Counter:       1   Parms: SMR     MR      
 Computing Diagnostic #   1040  TRAC69       Counter:       1   Parms: SMR     MR      
 Computing Diagnostic #   1052  TRAC70       Counter:       1   Parms: SMR     MR      
 Computing Diagnostic #   1064  TRAC71       Counter:       1   Parms: SMR     MR      
 Computing Diagnostic #   1076  TRAC72       Counter:       1   Parms: SMR     MR      
 Computing Diagnostic #   1088  TRAC73       Counter:       1   Parms: SMR     MR      
 Computing Diagnostic #   1100  TRAC74       Counter:       1   Parms: SMR     MR      
 Computing Diagnostic #   1112  TRAC75       Counter:       1   Parms: SMR     MR      
 Computing Diagnostic #   1124  TRAC76       Counter:       1   Parms: SMR     MR      
 Computing Diagnostic #   1136  TRAC77       Counter:       1   Parms: SMR     MR      
 Computing Diagnostic #   1148  TRAC78       Counter:       1   Parms: SMR     MR      
 Computing Diagnostic #   1160  TRAC79       Counter:       1   Parms: SMR     MR      
 Computing Diagnostic #   1172  TRAC80       Counter:       1   Parms: SMR     MR      
 Computing Diagnostic #   1184  TRAC81       Counter:       1   Parms: SMR     MR      
 Computing Diagnostic #   1196  TRAC82       Counter:       1   Parms: SMR     MR      
 Computing Diagnostic #   1208  TRAC83       Counter:       1   Parms: SMR     MR      
 Computing Diagnostic #   1220  TRAC84       Counter:       1   Parms: SMR     MR      
 Computing Diagnostic #   1232  TRAC85       Counter:       1   Parms: SMR     MR      
 Computing Diagnostic #   1244  TRAC86       Counter:       1   Parms: SMR     MR      
 Computing Diagnostic #   1256  TRAC87       Counter:       1   Parms: SMR     MR      
 Computing Diagnostic #   1268  TRAC88       Counter:       1   Parms: SMR     MR      
 Computing Diagnostic #   1280  TRAC89       Counter:       1   Parms: SMR     MR      
 Computing Diagnostic #   1292  TRAC90       Counter:       1   Parms: SMR     MR      
 Computing Diagnostic #   1304  TRAC91       Counter:       1   Parms: SMR     MR      
 Computing Diagnostic #   1316  TRAC92       Counter:       1   Parms: SMR     MR      
 Computing Diagnostic #   1328  TRAC93       Counter:       1   Parms: SMR     MR      
 Computing Diagnostic #   1340  TRAC94       Counter:       1   Parms: SMR     MR      
 Computing Diagnostic #   1352  TRAC95       Counter:       1   Parms: SMR     MR      
 Computing Diagnostic #   1364  TRAC96       Counter:       1   Parms: SMR     MR      
 Computing Diagnostic #   1376  TRAC97       Counter:       1   Parms: SMR     MR      
 Computing Diagnostic #   1388  TRAC98       Counter:       1   Parms: SMR     MR      
 Computing Diagnostic #   1400  TRAC99       Counter:       1   Parms: SMR     MR      
 Computing Diagnostic #   1412  TRAC0a       Counter:       1   Parms: SMR     MR      
 Computing Diagnostic #   1424  TRAC0b       Counter:       1   Parms: SMR     MR      
 Computing Diagnostic #   1436  TRAC0c       Counter:       1   Parms: SMR     MR      
 Computing Diagnostic #   1448  TRAC0d       Counter:       1   Parms: SMR     MR      
 Computing Diagnostic #   1460  TRAC0e       Counter:       1   Parms: SMR     MR      
 Computing Diagnostic #   1472  TRAC0f       Counter:       1   Parms: SMR     MR      
 Computing Diagnostic #   1484  TRAC0g       Counter:       1   Parms: SMR     MR      
 Computing Diagnostic #   1496  TRAC0h       Counter:       1   Parms: SMR     MR      
 Computing Diagnostic #   1508  TRAC0i       Counter:       1   Parms: SMR     MR      
 Computing Diagnostic #   1520  TRAC0j       Counter:       1   Parms: SMR     MR      
 Computing Diagnostic #   1532  TRAC0k       Counter:       1   Parms: SMR     MR      
 Computing Diagnostic #   1544  TRAC0l       Counter:       1   Parms: SMR     MR      
 Computing Diagnostic #   1556  TRAC0m       Counter:       1   Parms: SMR     MR      
 Computing Diagnostic #   1568  TRAC0n       Counter:       1   Parms: SMR     MR      
 Computing Diagnostic #   1580  TRAC0o       Counter:       1   Parms: SMR     MR      
 Computing Diagnostic #   1592  TRAC0p       Counter:       1   Parms: SMR     MR      
 Computing Diagnostic #   1604  TRAC0q       Counter:       1   Parms: SMR     MR      
 Computing Diagnostic #   1616  TRAC0r       Counter:       1   Parms: SMR     MR      
 Computing Diagnostic #   1628  TRAC0s       Counter:       1   Parms: SMR     MR      
 Computing Diagnostic #   1640  TRAC0t       Counter:       1   Parms: SMR     MR      
 Computing Diagnostic #   1652  TRAC0u       Counter:       1   Parms: SMR     MR      
 Computing Diagnostic #   1664  TRAC0v       Counter:       1   Parms: SMR     MR      
 Computing Diagnostic #   1676  TRAC0w       Counter:       1   Parms: SMR     MR      
 Computing Diagnostic #   1688  TRAC0x       Counter:       1   Parms: SMR     MR      
 Computing Diagnostic #   1700  TRAC0y       Counter:       1   Parms: SMR     MR      
 Computing Diagnostic #   1712  TRAC0z       Counter:       1   Parms: SMR     MR      
 Computing Diagnostic #   1724  TRAC0A       Counter:       1   Parms: SMR     MR      
 Computing Diagnostic #   1736  TRAC0B       Counter:       1   Parms: SMR     MR      
 Computing Diagnostic #   1748  TRAC0C       Counter:       1   Parms: SMR     MR      
 Computing Diagnostic #   1760  TRAC0D       Counter:       1   Parms: SMR     MR      
 Computing Diagnostic #   1772  TRAC0E       Counter:       1   Parms: SMR     MR      
 Computing Diagnostic #   1784  TRAC0F       Counter:       1   Parms: SMR     MR      
 Computing Diagnostic #   1796  TRAC0G       Counter:       1   Parms: SMR     MR      
 Computing Diagnostic #   1808  TRAC0H       Counter:       1   Parms: SMR     MR      
 Computing Diagnostic #   1820  TRAC0I       Counter:       1   Parms: SMR     MR      
 Computing Diagnostic #   1832  TRAC0J       Counter:       1   Parms: SMR     MR      
 Computing Diagnostic #   1844  TRAC0K       Counter:       1   Parms: SMR     MR      
 Computing Diagnostic #   1856  TRAC0L       Counter:       1   Parms: SMR     MR      
 Computing Diagnostic #   1868  TRAC0M       Counter:       1   Parms: SMR     MR      
 Computing Diagnostic #   1880  TRAC0N       Counter:       1   Parms: SMR     MR      
 Computing Diagnostic #   1892  TRAC0O       Counter:       1   Parms: SMR     MR      
 Computing Diagnostic #   1904  TRAC0P       Counter:       1   Parms: SMR     MR      
 Computing Diagnostic #   1916  TRAC0Q       Counter:       1   Parms: SMR     MR      
 Computing Diagnostic #   1928  TRAC0R       Counter:       1   Parms: SMR     MR      
 Computing Diagnostic #   1940  TRAC0S       Counter:       1   Parms: SMR     MR      
 Computing Diagnostic #   1952  TRAC0T       Counter:       1   Parms: SMR     MR      
 Computing Diagnostic #   1964  TRAC0U       Counter:       1   Parms: SMR     MR      
 Computing Diagnostic #   1976  TRAC0V       Counter:       1   Parms: SMR     MR      
 Computing Diagnostic #   1988  TRAC0W       Counter:       1   Parms: SMR     MR      
 Computing Diagnostic #   2000  TRAC0X       Counter:       1   Parms: SMR     MR      
 Computing Diagnostic #   2012  TRAC0Y       Counter:       1   Parms: SMR     MR      
 Computing Diagnostic #   2024  TRAC0Z       Counter:       1   Parms: SMR     MR      
 Computing Diagnostic #   2036  TRAC1a       Counter:       1   Parms: SMR     MR      
 Computing Diagnostic #   2048  TRAC1b       Counter:       1   Parms: SMR     MR      
 Computing Diagnostic #   2060  TRAC1c       Counter:       1   Parms: SMR     MR      
 Computing Diagnostic #   2072  TRAC1d       Counter:       1   Parms: SMR     MR      
 Computing Diagnostic #   2084  TRAC1e       Counter:       1   Parms: SMR     MR      
 Computing Diagnostic #   2096  TRAC1f       Counter:       1   Parms: SMR     MR      
 Computing Diagnostic #   2108  TRAC1g       Counter:       1   Parms: SMR     MR      
 Computing Diagnostic #   2120  TRAC1h       Counter:       1   Parms: SMR     MR      
 Computing Diagnostic #   2132  TRAC1i       Counter:       1   Parms: SMR     MR      
 Computing Diagnostic #   2144  TRAC1j       Counter:       1   Parms: SMR     MR      
 Computing Diagnostic #   2156  TRAC1k       Counter:       1   Parms: SMR     MR      
 Computing Diagnostic #   2168  TRAC1l       Counter:       1   Parms: SMR     MR      
 Computing Diagnostic #   2180  TRAC1m       Counter:       1   Parms: SMR     MR      
 Computing Diagnostic #   2192  TRAC1n       Counter:       1   Parms: SMR     MR      
 Computing Diagnostic #   2204  TRAC1o       Counter:       1   Parms: SMR     MR      
 Computing Diagnostic #   2216  TRAC1p       Counter:       1   Parms: SMR     MR      
 Computing Diagnostic #   2228  TRAC1q       Counter:       1   Parms: SMR     MR      
 Computing Diagnostic #   2240  TRAC1r       Counter:       1   Parms: SMR     MR      
 Computing Diagnostic #   2252  TRAC1s       Counter:       1   Parms: SMR     MR      
 Computing Diagnostic #   2264  TRAC1t       Counter:       1   Parms: SMR     MR      
 Computing Diagnostic #   2276  TRAC1u       Counter:       1   Parms: SMR     MR      
 Computing Diagnostic #   2288  TRAC1v       Counter:       1   Parms: SMR     MR      
 Computing Diagnostic #   2300  TRAC1w       Counter:       1   Parms: SMR     MR      
 Computing Diagnostic #   2312  TRAC1x       Counter:       1   Parms: SMR     MR      
 Computing Diagnostic #   2324  TRAC1y       Counter:       1   Parms: SMR     MR      
 Computing Diagnostic #   2336  TRAC1z       Counter:       1   Parms: SMR     MR      
 Computing Diagnostic #   2348  TRAC1A       Counter:       1   Parms: SMR     MR      
 Computing Diagnostic #   2360  TRAC1B       Counter:       1   Parms: SMR     MR      
 Computing Diagnostic #   2372  TRAC1C       Counter:       1   Parms: SMR     MR      
 Computing Diagnostic #   2384  TRAC1D       Counter:       1   Parms: SMR     MR      
 Computing Diagnostic #   2396  TRAC1E       Counter:       1   Parms: SMR     MR      
 Computing Diagnostic #   2408  TRAC1F       Counter:       1   Parms: SMR     MR      
 Computing Diagnostic #   2420  TRAC1G       Counter:       1   Parms: SMR     MR      
 Computing Diagnostic #   2432  TRAC1H       Counter:       1   Parms: SMR     MR      
 Computing Diagnostic #   2444  TRAC1I       Counter:       1   Parms: SMR     MR      
 Computing Diagnostic #   2456  TRAC1J       Counter:       1   Parms: SMR     MR      
 Computing Diagnostic #   2468  TRAC1K       Counter:       1   Parms: SMR     MR      
 Computing Diagnostic #   2480  TRAC1L       Counter:       1   Parms: SMR     MR      
 Computing Diagnostic #   2492  TRAC1M       Counter:       1   Parms: SMR     MR      
 Computing Diagnostic #   2504  TRAC1N       Counter:       1   Parms: SMR     MR      
 Computing Diagnostic #   2516  TRAC1O       Counter:       1   Parms: SMR     MR      
 Computing Diagnostic #   2528  TRAC1P       Counter:       1   Parms: SMR     MR      
 Computing Diagnostic #   2540  TRAC1Q       Counter:       1   Parms: SMR     MR      
 Computing Diagnostic #   2552  TRAC1R       Counter:       1   Parms: SMR     MR      
 Computing Diagnostic #   2564  TRAC1S       Counter:       1   Parms: SMR     MR      
 Computing Diagnostic #   2576  TRAC1T       Counter:       1   Parms: SMR     MR      
 Computing Diagnostic #   2588  TRAC1U       Counter:       1   Parms: SMR     MR      
 Computing Diagnostic #   2600  TRAC1V       Counter:       1   Parms: SMR     MR      
 Computing Diagnostic #   2612  TRAC1W       Counter:       1   Parms: SMR     MR      
 Computing Diagnostic #   2624  TRAC1X       Counter:       1   Parms: SMR     MR      
 Computing Diagnostic #   2636  TRAC1Y       Counter:       1   Parms: SMR     MR      
 Computing Diagnostic #   2648  TRAC1Z       Counter:       1   Parms: SMR     MR      
 Computing Diagnostic #   2660  TRAC2a       Counter:       1   Parms: SMR     MR      
 Computing Diagnostic #   2672  TRAC2b       Counter:       1   Parms: SMR     MR      
 Computing Diagnostic #   2684  TRAC2c       Counter:       1   Parms: SMR     MR      
 Computing Diagnostic #   2696  TRAC2d       Counter:       1   Parms: SMR     MR      
(PID.TID 0000.0001) %CHECKPOINT   5644804 ckptA
(PID.TID 0000.0001)   Seconds in section "ALL                    [THE_MODEL_MAIN]":
(PID.TID 0000.0001)           User time:   261.80000000000001
(PID.TID 0000.0001)         System time:   72.760000000000005
(PID.TID 0000.0001)     Wall clock time:   489.38886189460754
(PID.TID 0000.0001)          No. starts:           1
(PID.TID 0000.0001)           No. stops:           1
(PID.TID 0000.0001)   Seconds in section "INITIALISE_FIXED       [THE_MODEL_MAIN]":
(PID.TID 0000.0001)           User time:   2.0600000000000001
(PID.TID 0000.0001)         System time:   8.0000000000000002E-002
(PID.TID 0000.0001)     Wall clock time:   2.3408801555633545
(PID.TID 0000.0001)          No. starts:           1
(PID.TID 0000.0001)           No. stops:           1
(PID.TID 0000.0001)   Seconds in section "THE_MAIN_LOOP          [THE_MODEL_MAIN]":
(PID.TID 0000.0001)           User time:   259.73000000000002
(PID.TID 0000.0001)         System time:   72.680000000000007
(PID.TID 0000.0001)     Wall clock time:   487.02901792526245
(PID.TID 0000.0001)          No. starts:           1
(PID.TID 0000.0001)           No. stops:           1
(PID.TID 0000.0001)   Seconds in section "INITIALISE_VARIA    [THE_MAIN_LOOP]":
(PID.TID 0000.0001)           User time:   25.880000000000003
(PID.TID 0000.0001)         System time:   38.859999999999999
(PID.TID 0000.0001)     Wall clock time:   135.40107583999634
(PID.TID 0000.0001)          No. starts:           1
(PID.TID 0000.0001)           No. stops:           1
(PID.TID 0000.0001)   Seconds in section "MAIN LOOP           [THE_MAIN_LOOP]":
(PID.TID 0000.0001)           User time:   233.85000000000002
(PID.TID 0000.0001)         System time:   33.820000000000007
(PID.TID 0000.0001)     Wall clock time:   351.62790012359619
(PID.TID 0000.0001)          No. starts:           1
(PID.TID 0000.0001)           No. stops:           1
(PID.TID 0000.0001)   Seconds in section "FORWARD_STEP        [THE_MAIN_LOOP]":
(PID.TID 0000.0001)           User time:   233.85000000000002
(PID.TID 0000.0001)         System time:   33.820000000000007
(PID.TID 0000.0001)     Wall clock time:   351.62780714035034
(PID.TID 0000.0001)          No. starts:           4
(PID.TID 0000.0001)           No. stops:           4
(PID.TID 0000.0001)   Seconds in section "DO_STATEVARS_DIAGS  [FORWARD_STEP]":
(PID.TID 0000.0001)           User time:   1.3300000000000125
(PID.TID 0000.0001)         System time:   0.0000000000000000
(PID.TID 0000.0001)     Wall clock time:   1.2213416099548340
(PID.TID 0000.0001)          No. starts:           8
(PID.TID 0000.0001)           No. stops:           8
(PID.TID 0000.0001)   Seconds in section "LOAD_FIELDS_DRIVER  [FORWARD_STEP]":
(PID.TID 0000.0001)           User time:   9.9999999999994316E-002
(PID.TID 0000.0001)         System time:   0.0000000000000000
(PID.TID 0000.0001)     Wall clock time:  0.13901090621948242
(PID.TID 0000.0001)          No. starts:           4
(PID.TID 0000.0001)           No. stops:           4
(PID.TID 0000.0001)   Seconds in section "EXF_GETFORCING     [LOAD_FLDS_DRIVER]":
(PID.TID 0000.0001)           User time:   7.9999999999984084E-002
(PID.TID 0000.0001)         System time:   0.0000000000000000
(PID.TID 0000.0001)     Wall clock time:   6.9563865661621094E-002
(PID.TID 0000.0001)          No. starts:           4
(PID.TID 0000.0001)           No. stops:           4
(PID.TID 0000.0001)   Seconds in section "EXTERNAL_FLDS_LOAD [LOAD_FLDS_DRIVER]":
(PID.TID 0000.0001)           User time:   0.0000000000000000
(PID.TID 0000.0001)         System time:   0.0000000000000000
(PID.TID 0000.0001)     Wall clock time:   4.6103000640869141E-002
(PID.TID 0000.0001)          No. starts:           4
(PID.TID 0000.0001)           No. stops:           4
(PID.TID 0000.0001)   Seconds in section "DO_ATMOSPHERIC_PHYS [FORWARD_STEP]":
(PID.TID 0000.0001)           User time:   0.0000000000000000
(PID.TID 0000.0001)         System time:   0.0000000000000000
(PID.TID 0000.0001)     Wall clock time:   4.7922134399414062E-005
(PID.TID 0000.0001)          No. starts:           4
(PID.TID 0000.0001)           No. stops:           4
(PID.TID 0000.0001)   Seconds in section "DO_OCEANIC_PHYS     [FORWARD_STEP]":
(PID.TID 0000.0001)           User time:  0.34999999999999432
(PID.TID 0000.0001)         System time:   0.0000000000000000
(PID.TID 0000.0001)     Wall clock time:  0.32825303077697754
(PID.TID 0000.0001)          No. starts:           4
(PID.TID 0000.0001)           No. stops:           4
(PID.TID 0000.0001)   Seconds in section "GCHEM_CALC_TENDENCY [FORWARD_STEP]":
(PID.TID 0000.0001)           User time:   0.0000000000000000
(PID.TID 0000.0001)         System time:   0.0000000000000000
(PID.TID 0000.0001)     Wall clock time:   4.4822692871093750E-005
(PID.TID 0000.0001)          No. starts:           4
(PID.TID 0000.0001)           No. stops:           4
(PID.TID 0000.0001)   Seconds in section "THERMODYNAMICS      [FORWARD_STEP]":
(PID.TID 0000.0001)           User time:   102.47999999999999
(PID.TID 0000.0001)         System time:   0.0000000000000000
(PID.TID 0000.0001)     Wall clock time:   95.018428087234497
(PID.TID 0000.0001)          No. starts:           4
(PID.TID 0000.0001)           No. stops:           4
(PID.TID 0000.0001)   Seconds in section "DYNAMICS            [FORWARD_STEP]":
(PID.TID 0000.0001)           User time:   1.3100000000000023
(PID.TID 0000.0001)         System time:   0.0000000000000000
(PID.TID 0000.0001)     Wall clock time:   1.2325437068939209
(PID.TID 0000.0001)          No. starts:           4
(PID.TID 0000.0001)           No. stops:           4
(PID.TID 0000.0001)   Seconds in section "SOLVE_FOR_PRESSURE  [FORWARD_STEP]":
(PID.TID 0000.0001)           User time:  0.12000000000000455
(PID.TID 0000.0001)         System time:   0.0000000000000000
(PID.TID 0000.0001)     Wall clock time:  0.12723064422607422
(PID.TID 0000.0001)          No. starts:           4
(PID.TID 0000.0001)           No. stops:           4
(PID.TID 0000.0001)   Seconds in section "MOM_CORRECTION_STEP [FORWARD_STEP]":
(PID.TID 0000.0001)           User time:   2.9999999999972715E-002
(PID.TID 0000.0001)         System time:   0.0000000000000000
(PID.TID 0000.0001)     Wall clock time:   2.0668029785156250E-002
(PID.TID 0000.0001)          No. starts:           4
(PID.TID 0000.0001)           No. stops:           4
(PID.TID 0000.0001)   Seconds in section "INTEGR_CONTINUITY   [FORWARD_STEP]":
(PID.TID 0000.0001)           User time:   4.0000000000020464E-002
(PID.TID 0000.0001)         System time:   0.0000000000000000
(PID.TID 0000.0001)     Wall clock time:   3.3942937850952148E-002
(PID.TID 0000.0001)          No. starts:           4
(PID.TID 0000.0001)           No. stops:           4
(PID.TID 0000.0001)   Seconds in section "TRC_CORRECTION_STEP [FORWARD_STEP]":
(PID.TID 0000.0001)           User time:   1.2099999999999795
(PID.TID 0000.0001)         System time:   0.0000000000000000
(PID.TID 0000.0001)     Wall clock time:   1.1504349708557129
(PID.TID 0000.0001)          No. starts:           4
(PID.TID 0000.0001)           No. stops:           4
(PID.TID 0000.0001)   Seconds in section "GCHEM_FORCING_SEP  [FORWARD_STEP]":
(PID.TID 0000.0001)           User time:   60.420000000000044
(PID.TID 0000.0001)         System time:   0.0000000000000000
(PID.TID 0000.0001)     Wall clock time:   57.291998863220215
(PID.TID 0000.0001)          No. starts:           4
(PID.TID 0000.0001)           No. stops:           4
(PID.TID 0000.0001)   Seconds in section "DARWIN_FORCING [GCHEM_FORCING_SEP]":
(PID.TID 0000.0001)           User time:   45.019999999999953
(PID.TID 0000.0001)         System time:   0.0000000000000000
(PID.TID 0000.0001)     Wall clock time:   42.678667306900024
(PID.TID 0000.0001)          No. starts:          16
(PID.TID 0000.0001)           No. stops:          16
(PID.TID 0000.0001)   Seconds in section "DARWIN_LIGHT [DARWIN_FORCING]":
(PID.TID 0000.0001)           User time:  0.38000000000002387
(PID.TID 0000.0001)         System time:   0.0000000000000000
(PID.TID 0000.0001)     Wall clock time:  0.38702797889709473
(PID.TID 0000.0001)          No. starts:          16
(PID.TID 0000.0001)           No. stops:          16
(PID.TID 0000.0001)   Seconds in section "DARWIN_FE_CHEM1 [DARWIN_FORCING]":
(PID.TID 0000.0001)           User time:  0.14000000000001478
(PID.TID 0000.0001)         System time:   0.0000000000000000
(PID.TID 0000.0001)     Wall clock time:  0.11321210861206055
(PID.TID 0000.0001)          No. starts:          16
(PID.TID 0000.0001)           No. stops:          16
(PID.TID 0000.0001)   Seconds in section "DARWIN_MODEL [DARWIN_FORCING]":
(PID.TID 0000.0001)           User time:   9.6999999999998749
(PID.TID 0000.0001)         System time:   0.0000000000000000
(PID.TID 0000.0001)     Wall clock time:   9.1921460628509521
(PID.TID 0000.0001)          No. starts:          16
(PID.TID 0000.0001)           No. stops:          16
(PID.TID 0000.0001)   Seconds in section "DARWIN_GRAZING [DARWIN_FORCING]":
(PID.TID 0000.0001)           User time:   28.030000000000172
(PID.TID 0000.0001)         System time:   0.0000000000000000
(PID.TID 0000.0001)     Wall clock time:   26.543575763702393
(PID.TID 0000.0001)          No. starts:          16
(PID.TID 0000.0001)           No. stops:          16
(PID.TID 0000.0001)   Seconds in section "DARWIN_SINKING [DARWIN_FORCING]":
(PID.TID 0000.0001)           User time:   6.7599999999999625
(PID.TID 0000.0001)         System time:   0.0000000000000000
(PID.TID 0000.0001)     Wall clock time:   6.4238884449005127
(PID.TID 0000.0001)          No. starts:          16
(PID.TID 0000.0001)           No. stops:          16
(PID.TID 0000.0001)   Seconds in section "DIAGS_FILL [DARWIN_FORCING]":
(PID.TID 0000.0001)           User time:   0.0000000000000000
(PID.TID 0000.0001)         System time:   0.0000000000000000
(PID.TID 0000.0001)     Wall clock time:   5.7244300842285156E-004
(PID.TID 0000.0001)          No. starts:          16
(PID.TID 0000.0001)           No. stops:          16
(PID.TID 0000.0001)   Seconds in section "DARWIN_FE_CHEM1 [GCHEM_FORCING_SEP]":
(PID.TID 0000.0001)           User time:   9.9999999999965894E-002
(PID.TID 0000.0001)         System time:   0.0000000000000000
(PID.TID 0000.0001)     Wall clock time:  0.10892486572265625
(PID.TID 0000.0001)          No. starts:          16
(PID.TID 0000.0001)           No. stops:          16
(PID.TID 0000.0001)   Seconds in section "BLOCKING_EXCHANGES  [FORWARD_STEP]":
(PID.TID 0000.0001)           User time:  0.70999999999997954
(PID.TID 0000.0001)         System time:   0.0000000000000000
(PID.TID 0000.0001)     Wall clock time:  0.66222500801086426
(PID.TID 0000.0001)          No. starts:           4
(PID.TID 0000.0001)           No. stops:           4
(PID.TID 0000.0001)   Seconds in section "DO_STATEVARS_TAVE   [FORWARD_STEP]":
(PID.TID 0000.0001)           User time:   1.5800000000000125
(PID.TID 0000.0001)         System time:   0.0000000000000000
(PID.TID 0000.0001)     Wall clock time:   1.5141332149505615
(PID.TID 0000.0001)          No. starts:           4
(PID.TID 0000.0001)           No. stops:           4
(PID.TID 0000.0001)   Seconds in section "MONITOR             [FORWARD_STEP]":
(PID.TID 0000.0001)           User time:  0.28000000000000114
(PID.TID 0000.0001)         System time:   0.0000000000000000
(PID.TID 0000.0001)     Wall clock time:  0.26794481277465820
(PID.TID 0000.0001)          No. starts:           4
(PID.TID 0000.0001)           No. stops:           4
(PID.TID 0000.0001)   Seconds in section "DO_THE_MODEL_IO     [FORWARD_STEP]":
(PID.TID 0000.0001)           User time:   61.239999999999952
(PID.TID 0000.0001)         System time:   33.409999999999997
(PID.TID 0000.0001)     Wall clock time:   184.39940786361694
(PID.TID 0000.0001)          No. starts:           4
(PID.TID 0000.0001)           No. stops:           4
(PID.TID 0000.0001)   Seconds in section "DO_WRITE_PICKUP     [FORWARD_STEP]":
(PID.TID 0000.0001)           User time:   2.6500000000000341
(PID.TID 0000.0001)         System time:  0.41000000000001080
(PID.TID 0000.0001)     Wall clock time:   8.2192039489746094
(PID.TID 0000.0001)          No. starts:           4
(PID.TID 0000.0001)           No. stops:           4
(PID.TID 0000.0001) // ======================================================
(PID.TID 0000.0001) // Tile <-> Tile communication statistics
(PID.TID 0000.0001) // ======================================================
(PID.TID 0000.0001) // o Tile number: 000001
(PID.TID 0000.0001) //         No. X exchanges =              0
(PID.TID 0000.0001) //            Max. X spins =              0
(PID.TID 0000.0001) //            Min. X spins =     1000000000
(PID.TID 0000.0001) //          Total. X spins =              0
(PID.TID 0000.0001) //            Avg. X spins =       0.00E+00
(PID.TID 0000.0001) //         No. Y exchanges =              0
(PID.TID 0000.0001) //            Max. Y spins =              0
(PID.TID 0000.0001) //            Min. Y spins =     1000000000
(PID.TID 0000.0001) //          Total. Y spins =              0
(PID.TID 0000.0001) //            Avg. Y spins =       0.00E+00
(PID.TID 0000.0001) // o Tile number: 000002
(PID.TID 0000.0001) //         No. X exchanges =              0
(PID.TID 0000.0001) //            Max. X spins =              0
(PID.TID 0000.0001) //            Min. X spins =     1000000000
(PID.TID 0000.0001) //          Total. X spins =              0
(PID.TID 0000.0001) //            Avg. X spins =       0.00E+00
(PID.TID 0000.0001) //         No. Y exchanges =              0
(PID.TID 0000.0001) //            Max. Y spins =              0
(PID.TID 0000.0001) //            Min. Y spins =     1000000000
(PID.TID 0000.0001) //          Total. Y spins =              0
(PID.TID 0000.0001) //            Avg. Y spins =       0.00E+00
(PID.TID 0000.0001) // o Thread number: 000001
(PID.TID 0000.0001) //            No. barriers =          17368
(PID.TID 0000.0001) //      Max. barrier spins =              1
(PID.TID 0000.0001) //      Min. barrier spins =              1
(PID.TID 0000.0001) //     Total barrier spins =          17368
(PID.TID 0000.0001) //      Avg. barrier spins =       1.00E+00
PROGRAM MAIN: Execution ended Normally
