(PID.TID 0000.0001) 
(PID.TID 0000.0001) // ======================================================
(PID.TID 0000.0001) //                      MITgcm UV
(PID.TID 0000.0001) //                      =========
(PID.TID 0000.0001) // ======================================================
(PID.TID 0000.0001) // execution environment starting up...
(PID.TID 0000.0001) 
(PID.TID 0000.0001) // MITgcmUV version:  checkpoint65u
(PID.TID 0000.0001) // Build user:        jahn
(PID.TID 0000.0001) // Build host:        node201
(PID.TID 0000.0001) // Build date:        Fri Apr  1 12:24:52 EDT 2016
(PID.TID 0000.0001) 
(PID.TID 0000.0001) // =======================================================
(PID.TID 0000.0001) // Execution Environment parameter file "eedata"
(PID.TID 0000.0001) // =======================================================
(PID.TID 0000.0001) ># Example "eedata" file
(PID.TID 0000.0001) ># Lines beginning "#" are comments
(PID.TID 0000.0001) ># nTx - No. threads per process in X
(PID.TID 0000.0001) ># nTy - No. threads per process in Y
(PID.TID 0000.0001) > &EEPARMS
(PID.TID 0000.0001) > nTx=1,nTy=1
(PID.TID 0000.0001) > /
(PID.TID 0000.0001) ># Note: Some systems use & as the
(PID.TID 0000.0001) ># namelist terminator. Other systems
(PID.TID 0000.0001) ># use a / character (as shown here).
(PID.TID 0000.0001) 
(PID.TID 0000.0001) // =======================================================
(PID.TID 0000.0001) // Computational Grid Specification ( see files "SIZE.h" )
(PID.TID 0000.0001) //                                  ( and "eedata"       )
(PID.TID 0000.0001) // =======================================================
(PID.TID 0000.0001)      nPx =    1 ; /* No. processes in X */
(PID.TID 0000.0001)      nPy =    1 ; /* No. processes in Y */
(PID.TID 0000.0001)      nSx =    1 ; /* No. tiles in X per process */
(PID.TID 0000.0001)      nSy =    1 ; /* No. tiles in Y per process */
(PID.TID 0000.0001)      sNx =    1 ; /* Tile size in X */
(PID.TID 0000.0001)      sNy =    1 ; /* Tile size in Y */
(PID.TID 0000.0001)      OLx =    2 ; /* Tile overlap distance in X */
(PID.TID 0000.0001)      OLy =    2 ; /* Tile overlap distance in Y */
(PID.TID 0000.0001)      nTx =    1 ; /* No. threads in X per process */
(PID.TID 0000.0001)      nTy =    1 ; /* No. threads in Y per process */
(PID.TID 0000.0001)       Nr =   35 ; /* No. levels in the vertical   */
(PID.TID 0000.0001)       Nx =    1 ; /* Total domain size in X ( = nPx*nSx*sNx ) */
(PID.TID 0000.0001)       Ny =    1 ; /* Total domain size in Y ( = nPy*nSy*sNy ) */
(PID.TID 0000.0001)   nTiles =    1 ; /* Total no. tiles per process ( = nSx*nSy ) */
(PID.TID 0000.0001)   nProcs =    1 ; /* Total no. processes ( = nPx*nPy ) */
(PID.TID 0000.0001) nThreads =    1 ; /* Total no. threads per process ( = nTx*nTy ) */
(PID.TID 0000.0001) usingMPI =    F ; /* Flag used to control whether MPI is in use */
(PID.TID 0000.0001)                   /*  note: To execute a program with MPI calls */
(PID.TID 0000.0001)                   /*  it must be launched appropriately e.g     */
(PID.TID 0000.0001)                   /*  "mpirun -np 64 ......"                    */
(PID.TID 0000.0001) useCoupler=    F ;/* Flag used to control communications with   */
(PID.TID 0000.0001)                   /*  other model components, through a coupler */
(PID.TID 0000.0001) debugMode =    F ; /* print debug msg. (sequence of S/R calls)  */
(PID.TID 0000.0001) printMapIncludesZeros=    F ; /* print zeros in Std.Output maps */
(PID.TID 0000.0001) maxLengthPrt1D=   65 /* maxLength of 1D array printed to StdOut */
(PID.TID 0000.0001) 
(PID.TID 0000.0001) // ======================================================
(PID.TID 0000.0001) // Mapping of tiles to threads
(PID.TID 0000.0001) // ======================================================
(PID.TID 0000.0001) // -o- Thread   1, tiles (   1:   1,   1:   1)
(PID.TID 0000.0001) 
(PID.TID 0000.0001) // ======================================================
(PID.TID 0000.0001) // Tile <-> Tile connectvity table
(PID.TID 0000.0001) // ======================================================
(PID.TID 0000.0001) // Tile number: 000001 (process no. = 000000)
(PID.TID 0000.0001) //        WEST: Tile = 000001, Process = 000000, Comm = put
(PID.TID 0000.0001) //                bi = 000001, bj = 000001
(PID.TID 0000.0001) //        EAST: Tile = 000001, Process = 000000, Comm = put
(PID.TID 0000.0001) //                bi = 000001, bj = 000001
(PID.TID 0000.0001) //       SOUTH: Tile = 000001, Process = 000000, Comm = put
(PID.TID 0000.0001) //                bi = 000001, bj = 000001
(PID.TID 0000.0001) //       NORTH: Tile = 000001, Process = 000000, Comm = put
(PID.TID 0000.0001) //                bi = 000001, bj = 000001
(PID.TID 0000.0001) 
(PID.TID 0000.0001)  INI_PARMS: opening model parameter file "data"
(PID.TID 0000.0001)  OPEN_COPY_DATA_FILE: opening file data
(PID.TID 0000.0001) // =======================================================
(PID.TID 0000.0001) // Removing comments from "data"
(PID.TID 0000.0001) // =======================================================
(PID.TID 0000.0001)    1 &PARM01
(PID.TID 0000.0001)    2 tRef= 26.5, 26.1, 26., 25.5, 25.4, 24.9, 24.5, 24.0, 23.7,
(PID.TID 0000.0001)    3       23.3, 23.1, 22.8, 22.5, 22.1, 21.6, 20.6, 19.5, 18.4,
(PID.TID 0000.0001)    4       17.3, 16.6, 15.5, 14.6, 13.8, 13.1, 11.6, 10.1, 7.7,
(PID.TID 0000.0001)    5       5.3, 4.1, 3.7, 3.7, 3.4, 3.0, 2.8, 2.6,
(PID.TID 0000.0001)    6 sRef= 35*35.00,
(PID.TID 0000.0001)    7 no_slip_sides=.false.,
(PID.TID 0000.0001)    8 no_slip_bottom=.TRUE.,
(PID.TID 0000.0001)    9 viscAz=0.e0,
(PID.TID 0000.0001)   10 viscAh=0.e0,
(PID.TID 0000.0001)   11 diffKhT=1.E2,
(PID.TID 0000.0001)   12 diffKzT=1.E-4,
(PID.TID 0000.0001)   13 diffKhS=0.D0,
(PID.TID 0000.0001)   14 diffKzS=0.D0,
(PID.TID 0000.0001)   15 beta=1.E-11,
(PID.TID 0000.0001)   16 tAlpha=2.E-4,
(PID.TID 0000.0001)   17 sBeta =7.4E-4,
(PID.TID 0000.0001)   18 gravity=9.81,
(PID.TID 0000.0001)   19 gBaro=9.81,
(PID.TID 0000.0001)   20 rigidLid=.TRUE.,
(PID.TID 0000.0001)   21 implicitFreeSurface=.false.,
(PID.TID 0000.0001)   22 eosType='JMD95Z',
(PID.TID 0000.0001)   23 saltStepping=.FALSE.,
(PID.TID 0000.0001)   24 tempStepping=.TRUE.,
(PID.TID 0000.0001)   25 tempAdvection=.TRUE.,
(PID.TID 0000.0001)   26 momStepping=.FALSE.,
(PID.TID 0000.0001)   27 implicitDiffusion=.true.,
(PID.TID 0000.0001)   28 implicitViscosity=.false.,
(PID.TID 0000.0001)   29 allowFreezing=.false.,
(PID.TID 0000.0001)   30 useSingleCpuIO=.TRUE.,
(PID.TID 0000.0001)   31 useCDscheme=.FALSE.,
(PID.TID 0000.0001)   32 tempAdvScheme = 3,
(PID.TID 0000.0001)   33 saltAdvScheme = 3,
(PID.TID 0000.0001)   34 writeBinaryPrec= 64,
(PID.TID 0000.0001)   35 /
(PID.TID 0000.0001)   36
(PID.TID 0000.0001)   37 &PARM02
(PID.TID 0000.0001)   38 cg2dMaxIters=300,
(PID.TID 0000.0001)   39 cg2dTargetResidual=1.E-7,
(PID.TID 0000.0001)   40 /
(PID.TID 0000.0001)   41
(PID.TID 0000.0001)   42 &PARM03
(PID.TID 0000.0001)   43  nIter0=0,
(PID.TID 0000.0001)   44  nTimeSteps=4,
(PID.TID 0000.0001)   45  deltaTmom= 3600.,
(PID.TID 0000.0001)   46  deltaTtracer= 3600.,
(PID.TID 0000.0001)   47  deltaTClock = 3600.,
(PID.TID 0000.0001)   48  cAdjFreq    = -1.,
(PID.TID 0000.0001)   49  abEps=0.1,
(PID.TID 0000.0001)   50  pChkptFreq  = 31104000.0,
(PID.TID 0000.0001)   51  chkptFreq   = 31104000.0,
(PID.TID 0000.0001)   52  dumpFreq = 3600.,
(PID.TID 0000.0001)   53  dumpInitAndLast = .TRUE.,
(PID.TID 0000.0001)   54  taveFreq    = 2592000.,
(PID.TID 0000.0001)   55  monitorFreq = 1.,
(PID.TID 0000.0001)   56  tauThetaClimRelax=259200.,
(PID.TID 0000.0001)   57  tauSaltClimRelax=0.,
(PID.TID 0000.0001)   58  periodicExternalForcing=.TRUE.,
(PID.TID 0000.0001)   59  externForcingPeriod=2592000.,
(PID.TID 0000.0001)   60  externForcingCycle=31104000.,
(PID.TID 0000.0001)   61 /
(PID.TID 0000.0001)   62
(PID.TID 0000.0001)   63 &PARM04
(PID.TID 0000.0001)   64 usingCartesianGrid=.FALSE.,
(PID.TID 0000.0001)   65 usingSphericalPolarGrid=.TRUE.,
(PID.TID 0000.0001)   66 delX=1*1.E0,
(PID.TID 0000.0001)   67 delY=1*1.E0,
(PID.TID 0000.0001)   68 delZ=14*10, 5*15, 4*20, 2*50, 100, 2*150, 200, 300, 3*400, 2*500,
(PID.TID 0000.0001)   69 xgOrigin=335,
(PID.TID 0000.0001)   70 ygOrigin=-18.,
(PID.TID 0000.0001)   71 /
(PID.TID 0000.0001)   72
(PID.TID 0000.0001)   73 &PARM05
(PID.TID 0000.0001)   74 bathyFile=       '../input/input/bathyneg.bin',
(PID.TID 0000.0001)   75 hydrogThetaFile= '../input/input/loc1_temp_janprof.bin',
(PID.TID 0000.0001)   76 hydrogSaltFile=  '../input/input/salt_uniform.bin',
(PID.TID 0000.0001)   77 zonalWindFile=   '',
(PID.TID 0000.0001)   78 meridWindFile=   '',
(PID.TID 0000.0001)   79 thetaClimFile=   '../input/input/loc1_temp_monsurf.bin',
(PID.TID 0000.0001)   80 saltClimFile=    '',
(PID.TID 0000.0001)   81 surfQFile=       '',
(PID.TID 0000.0001)   82 EmPmRFile=       '',
(PID.TID 0000.0001)   83 /
(PID.TID 0000.0001) // =======================================================
(PID.TID 0000.0001) // Parameter file "data"
(PID.TID 0000.0001) // =======================================================
(PID.TID 0000.0001) >#
(PID.TID 0000.0001) ># ******************************
(PID.TID 0000.0001) ># Model parameters
(PID.TID 0000.0001) ># Continuous equation parameters
(PID.TID 0000.0001) ># ******************************
(PID.TID 0000.0001) >&PARM01
(PID.TID 0000.0001) >tRef= 26.5, 26.1, 26., 25.5, 25.4, 24.9, 24.5, 24.0, 23.7,
(PID.TID 0000.0001) >      23.3, 23.1, 22.8, 22.5, 22.1, 21.6, 20.6, 19.5, 18.4,
(PID.TID 0000.0001) >      17.3, 16.6, 15.5, 14.6, 13.8, 13.1, 11.6, 10.1, 7.7,
(PID.TID 0000.0001) >      5.3, 4.1, 3.7, 3.7, 3.4, 3.0, 2.8, 2.6,
(PID.TID 0000.0001) >sRef= 35*35.00,
(PID.TID 0000.0001) >no_slip_sides=.false.,
(PID.TID 0000.0001) >no_slip_bottom=.TRUE.,
(PID.TID 0000.0001) >viscAz=0.e0,
(PID.TID 0000.0001) >viscAh=0.e0,
(PID.TID 0000.0001) >diffKhT=1.E2,
(PID.TID 0000.0001) >diffKzT=1.E-4,
(PID.TID 0000.0001) >diffKhS=0.D0,
(PID.TID 0000.0001) >diffKzS=0.D0,
(PID.TID 0000.0001) >beta=1.E-11,
(PID.TID 0000.0001) >tAlpha=2.E-4,
(PID.TID 0000.0001) >sBeta =7.4E-4,
(PID.TID 0000.0001) >gravity=9.81,
(PID.TID 0000.0001) >gBaro=9.81,
(PID.TID 0000.0001) >rigidLid=.TRUE.,
(PID.TID 0000.0001) >implicitFreeSurface=.false.,
(PID.TID 0000.0001) >eosType='JMD95Z',
(PID.TID 0000.0001) >saltStepping=.FALSE.,
(PID.TID 0000.0001) >tempStepping=.TRUE.,
(PID.TID 0000.0001) >tempAdvection=.TRUE.,
(PID.TID 0000.0001) >momStepping=.FALSE.,
(PID.TID 0000.0001) >implicitDiffusion=.true.,
(PID.TID 0000.0001) >implicitViscosity=.false.,
(PID.TID 0000.0001) >allowFreezing=.false.,
(PID.TID 0000.0001) >useSingleCpuIO=.TRUE.,
(PID.TID 0000.0001) >useCDscheme=.FALSE.,
(PID.TID 0000.0001) >tempAdvScheme = 3,
(PID.TID 0000.0001) >saltAdvScheme = 3,
(PID.TID 0000.0001) >writeBinaryPrec= 64,
(PID.TID 0000.0001) >/
(PID.TID 0000.0001) >
(PID.TID 0000.0001) ># **************************
(PID.TID 0000.0001) ># Elliptic solver parameters
(PID.TID 0000.0001) ># **************************
(PID.TID 0000.0001) >&PARM02
(PID.TID 0000.0001) >cg2dMaxIters=300,
(PID.TID 0000.0001) >cg2dTargetResidual=1.E-7,
(PID.TID 0000.0001) >/
(PID.TID 0000.0001) >
(PID.TID 0000.0001) ># ************************
(PID.TID 0000.0001) ># Time stepping parameters
(PID.TID 0000.0001) ># ************************
(PID.TID 0000.0001) >&PARM03
(PID.TID 0000.0001) > nIter0=0,
(PID.TID 0000.0001) >#nTimeSteps=86400,
(PID.TID 0000.0001) > nTimeSteps=4,
(PID.TID 0000.0001) > deltaTmom= 3600.,
(PID.TID 0000.0001) > deltaTtracer= 3600.,
(PID.TID 0000.0001) > deltaTClock = 3600.,
(PID.TID 0000.0001) > cAdjFreq    = -1.,
(PID.TID 0000.0001) > abEps=0.1,
(PID.TID 0000.0001) > pChkptFreq  = 31104000.0,
(PID.TID 0000.0001) > chkptFreq   = 31104000.0,
(PID.TID 0000.0001) > dumpFreq = 3600.,
(PID.TID 0000.0001) > dumpInitAndLast = .TRUE.,
(PID.TID 0000.0001) > taveFreq    = 2592000.,
(PID.TID 0000.0001) >#monitorFreq = 2592000.,
(PID.TID 0000.0001) > monitorFreq = 1.,
(PID.TID 0000.0001) > tauThetaClimRelax=259200.,
(PID.TID 0000.0001) > tauSaltClimRelax=0.,
(PID.TID 0000.0001) > periodicExternalForcing=.TRUE.,
(PID.TID 0000.0001) > externForcingPeriod=2592000.,
(PID.TID 0000.0001) > externForcingCycle=31104000.,
(PID.TID 0000.0001) >/
(PID.TID 0000.0001) >
(PID.TID 0000.0001) ># *******************
(PID.TID 0000.0001) ># Gridding parameters
(PID.TID 0000.0001) ># *******************
(PID.TID 0000.0001) >&PARM04
(PID.TID 0000.0001) >usingCartesianGrid=.FALSE.,
(PID.TID 0000.0001) >usingSphericalPolarGrid=.TRUE.,
(PID.TID 0000.0001) >delX=1*1.E0,
(PID.TID 0000.0001) >delY=1*1.E0,
(PID.TID 0000.0001) >delZ=14*10, 5*15, 4*20, 2*50, 100, 2*150, 200, 300, 3*400, 2*500,
(PID.TID 0000.0001) >xgOrigin=335,
(PID.TID 0000.0001) >ygOrigin=-18.,
(PID.TID 0000.0001) >/
(PID.TID 0000.0001) >
(PID.TID 0000.0001) ># **********
(PID.TID 0000.0001) ># Data Files
(PID.TID 0000.0001) ># **********
(PID.TID 0000.0001) >&PARM05
(PID.TID 0000.0001) >bathyFile=       '../input/input/bathyneg.bin',
(PID.TID 0000.0001) >hydrogThetaFile= '../input/input/loc1_temp_janprof.bin',
(PID.TID 0000.0001) >hydrogSaltFile=  '../input/input/salt_uniform.bin',
(PID.TID 0000.0001) >zonalWindFile=   '',
(PID.TID 0000.0001) >meridWindFile=   '',
(PID.TID 0000.0001) >thetaClimFile=   '../input/input/loc1_temp_monsurf.bin',
(PID.TID 0000.0001) >saltClimFile=    '',
(PID.TID 0000.0001) >surfQFile=       '',
(PID.TID 0000.0001) >EmPmRFile=       '',
(PID.TID 0000.0001) >/
(PID.TID 0000.0001) 
(PID.TID 0000.0001)  INI_PARMS ; starts to read PARM01
(PID.TID 0000.0001)  INI_PARMS ; read PARM01 : OK
(PID.TID 0000.0001)  INI_PARMS ; starts to read PARM02
(PID.TID 0000.0001)  INI_PARMS ; read PARM02 : OK
(PID.TID 0000.0001)  INI_PARMS ; starts to read PARM03
(PID.TID 0000.0001)  INI_PARMS ; read PARM03 : OK
(PID.TID 0000.0001)  INI_PARMS ; starts to read PARM04
(PID.TID 0000.0001)  INI_PARMS ; read PARM04 : OK
(PID.TID 0000.0001)  INI_PARMS ; starts to read PARM05
(PID.TID 0000.0001)  INI_PARMS ; read PARM05 : OK
(PID.TID 0000.0001)  INI_PARMS: finished reading file "data"
(PID.TID 0000.0001)  PACKAGES_BOOT: opening data.pkg
(PID.TID 0000.0001)  OPEN_COPY_DATA_FILE: opening file data.pkg
(PID.TID 0000.0001) // =======================================================
(PID.TID 0000.0001) // Removing comments from "data.pkg"
(PID.TID 0000.0001) // =======================================================
(PID.TID 0000.0001)    1  &PACKAGES
(PID.TID 0000.0001)    2  usePTRACERS=.TRUE.
(PID.TID 0000.0001)    3  useGCHEM=.TRUE.,
(PID.TID 0000.0001)    4  useEXF=.TRUE.
(PID.TID 0000.0001)    5  useCAL=.TRUE.
(PID.TID 0000.0001)    6  useKPP=.FALSE.,
(PID.TID 0000.0001)    7  useMNC=.TRUE.,
(PID.TID 0000.0001)    8  useDIAGNOSTICS=.TRUE.,
(PID.TID 0000.0001)    9  /
(PID.TID 0000.0001) // =======================================================
(PID.TID 0000.0001) // Parameter file "data.pkg"
(PID.TID 0000.0001) // =======================================================
(PID.TID 0000.0001) ># Packages
(PID.TID 0000.0001) > &PACKAGES
(PID.TID 0000.0001) > usePTRACERS=.TRUE.
(PID.TID 0000.0001) > useGCHEM=.TRUE.,
(PID.TID 0000.0001) > useEXF=.TRUE.
(PID.TID 0000.0001) > useCAL=.TRUE.
(PID.TID 0000.0001) > useKPP=.FALSE.,
(PID.TID 0000.0001) > useMNC=.TRUE.,
(PID.TID 0000.0001) > useDIAGNOSTICS=.TRUE.,
(PID.TID 0000.0001) > /
(PID.TID 0000.0001) 
(PID.TID 0000.0001)  PACKAGES_BOOT: finished reading data.pkg
(PID.TID 0000.0001)  PACKAGES_BOOT: On/Off package Summary
 --------  pkgs with a standard "usePKG" On/Off switch in "data.pkg":  --------
 pkg/kpp                  compiled but not used ( useKPP                   = F )
 pkg/cal                  compiled   and   used ( useCAL                   = T )
 pkg/exf                  compiled   and   used ( useEXF                   = T )
 pkg/sbo                  compiled but not used ( useSBO                   = F )
 pkg/ptracers             compiled   and   used ( usePTRACERS              = T )
 pkg/gchem                compiled   and   used ( useGCHEM                 = T )
 pkg/diagnostics          compiled   and   used ( useDiagnostics           = T )
 pkg/mnc                  compiled   and   used ( useMNC                   = T )
 -------- pkgs without standard "usePKG" On/Off switch in "data.pkg":  --------
 pkg/generic_advdiff      compiled   and   used ( useGAD                   = T )
 pkg/monitor              compiled   and   used ( monitorFreq > 0.         = T )
 pkg/timeave              compiled   and   used ( taveFreq > 0.            = T )
 pkg/rw                   compiled   and   used
 pkg/mdsio                compiled   and   used
(PID.TID 0000.0001)  PACKAGES_BOOT: End of package Summary
(PID.TID 0000.0001) 
(PID.TID 0000.0001)  MNC_READPARMS: opening file 'data.mnc'
(PID.TID 0000.0001)  OPEN_COPY_DATA_FILE: opening file data.mnc
(PID.TID 0000.0001) // =======================================================
(PID.TID 0000.0001) // Removing comments from "data.mnc"
(PID.TID 0000.0001) // =======================================================
(PID.TID 0000.0001)    1  &MNC_01
(PID.TID 0000.0001)    2  mnc_use_outdir=.TRUE.,
(PID.TID 0000.0001)    3  mnc_outdir_str='dar1d_',
(PID.TID 0000.0001)    4  mnc_outdir_date=.TRUE.,
(PID.TID 0000.0001)    5  monitor_mnc=.FALSE.,
(PID.TID 0000.0001)    6  snapshot_mnc=.TRUE.,
(PID.TID 0000.0001)    7  timeave_mnc=.TRUE.,
(PID.TID 0000.0001)    8  pickup_read_mnc=.FALSE.,
(PID.TID 0000.0001)    9  pickup_write_mnc=.FALSE.,
(PID.TID 0000.0001)   10  /
(PID.TID 0000.0001) // =======================================================
(PID.TID 0000.0001) // Parameter file "data.mnc"
(PID.TID 0000.0001) // =======================================================
(PID.TID 0000.0001) ># Example "data.mnc" file
(PID.TID 0000.0001) ># Lines beginning "#" are comments
(PID.TID 0000.0001) > &MNC_01
(PID.TID 0000.0001) ># mnc_echo_gvtypes=.FALSE.,
(PID.TID 0000.0001) ># mnc_use_indir=.FALSE.,
(PID.TID 0000.0001) > mnc_use_outdir=.TRUE.,
(PID.TID 0000.0001) > mnc_outdir_str='dar1d_',
(PID.TID 0000.0001) > mnc_outdir_date=.TRUE.,
(PID.TID 0000.0001) > monitor_mnc=.FALSE.,
(PID.TID 0000.0001) > snapshot_mnc=.TRUE.,
(PID.TID 0000.0001) > timeave_mnc=.TRUE.,
(PID.TID 0000.0001) > pickup_read_mnc=.FALSE.,
(PID.TID 0000.0001) > pickup_write_mnc=.FALSE.,
(PID.TID 0000.0001) > /
(PID.TID 0000.0001) ># Note: Some systems use & as the
(PID.TID 0000.0001) ># namelist terminator. Other systems
(PID.TID 0000.0001) ># use a / character.
(PID.TID 0000.0001) 
(PID.TID 0000.0001)  MNC_READPARMS: finished reading data.mnc
(PID.TID 0000.0001) CAL_READPARMS: opening data.cal
(PID.TID 0000.0001)  OPEN_COPY_DATA_FILE: opening file data.cal
(PID.TID 0000.0001) // =======================================================
(PID.TID 0000.0001) // Removing comments from "data.cal"
(PID.TID 0000.0001) // =======================================================
(PID.TID 0000.0001)    1  &CAL_NML
(PID.TID 0000.0001)    2  TheCalendar='model',
(PID.TID 0000.0001)    3  startDate_1=19920101,
(PID.TID 0000.0001)    4  startDate_2=000000,
(PID.TID 0000.0001)    5  calendarDumps = .TRUE.
(PID.TID 0000.0001)    6  /
(PID.TID 0000.0001) // =======================================================
(PID.TID 0000.0001) // Parameter file "data.cal"
(PID.TID 0000.0001) // =======================================================
(PID.TID 0000.0001) >#
(PID.TID 0000.0001) ># *******************
(PID.TID 0000.0001) ># Calendar Parameters
(PID.TID 0000.0001) ># *******************
(PID.TID 0000.0001) > &CAL_NML
(PID.TID 0000.0001) > TheCalendar='model',
(PID.TID 0000.0001) > startDate_1=19920101,
(PID.TID 0000.0001) > startDate_2=000000,
(PID.TID 0000.0001) > calendarDumps = .TRUE.
(PID.TID 0000.0001) > /
(PID.TID 0000.0001) 
(PID.TID 0000.0001) CAL_READPARMS: finished reading data.cal
(PID.TID 0000.0001) EXF_READPARMS: opening data.exf
(PID.TID 0000.0001)  OPEN_COPY_DATA_FILE: opening file data.exf
(PID.TID 0000.0001) // =======================================================
(PID.TID 0000.0001) // Removing comments from "data.exf"
(PID.TID 0000.0001) // =======================================================
(PID.TID 0000.0001)    1  &EXF_NML_01
(PID.TID 0000.0001)    2  exf_albedo        = 0.15,
(PID.TID 0000.0001)    3  exf_iprec         = 32,
(PID.TID 0000.0001)    4  exf_yftype        = 'RL',
(PID.TID 0000.0001)    5  useExfYearlyFields= .TRUE.,
(PID.TID 0000.0001)    6  twoDigitYear      = .TRUE.,
(PID.TID 0000.0001)    7  useExfCheckRange  = .FALSE.,
(PID.TID 0000.0001)    8  /
(PID.TID 0000.0001)    9  &EXF_NML_02
(PID.TID 0000.0001)   10  /
(PID.TID 0000.0001)   11  &EXF_NML_03
(PID.TID 0000.0001)   12  /
(PID.TID 0000.0001)   13  &EXF_NML_04
(PID.TID 0000.0001)   14  /
(PID.TID 0000.0001)   15  &EXF_NML_OBCS
(PID.TID 0000.0001)   16  /
(PID.TID 0000.0001) // =======================================================
(PID.TID 0000.0001) // Parameter file "data.exf"
(PID.TID 0000.0001) // =======================================================
(PID.TID 0000.0001) ># *********************
(PID.TID 0000.0001) ># External Forcing Data
(PID.TID 0000.0001) ># *********************
(PID.TID 0000.0001) >#
(PID.TID 0000.0001) > &EXF_NML_01
(PID.TID 0000.0001) > exf_albedo        = 0.15,
(PID.TID 0000.0001) > exf_iprec         = 32,
(PID.TID 0000.0001) > exf_yftype        = 'RL',
(PID.TID 0000.0001) > useExfYearlyFields= .TRUE.,
(PID.TID 0000.0001) > twoDigitYear      = .TRUE.,
(PID.TID 0000.0001) > useExfCheckRange  = .FALSE.,
(PID.TID 0000.0001) > /
(PID.TID 0000.0001) >#
(PID.TID 0000.0001) > &EXF_NML_02
(PID.TID 0000.0001) > /
(PID.TID 0000.0001) >#
(PID.TID 0000.0001) > &EXF_NML_03
(PID.TID 0000.0001) > /
(PID.TID 0000.0001) >#
(PID.TID 0000.0001) > &EXF_NML_04
(PID.TID 0000.0001) > /
(PID.TID 0000.0001) >#
(PID.TID 0000.0001) > &EXF_NML_OBCS
(PID.TID 0000.0001) > /
(PID.TID 0000.0001) 
(PID.TID 0000.0001) EXF_READPARMS: reading EXF_NML_01
(PID.TID 0000.0001) EXF_READPARMS: reading EXF_NML_02
(PID.TID 0000.0001) EXF_READPARMS: reading EXF_NML_03
(PID.TID 0000.0001) EXF_READPARMS: finished reading data.exf
(PID.TID 0000.0001)  PTRACERS_READPARMS: opening data.ptracers
(PID.TID 0000.0001)  OPEN_COPY_DATA_FILE: opening file data.ptracers
(PID.TID 0000.0001) // =======================================================
(PID.TID 0000.0001) // Removing comments from "data.ptracers"
(PID.TID 0000.0001) // =======================================================
(PID.TID 0000.0001)    1  &PTRACERS_PARM01
(PID.TID 0000.0001)    2  PTRACERS_numInUse= 98,
(PID.TID 0000.0001)    3  PTRACERS_Iter0= 0,
(PID.TID 0000.0001)    4  PTRACERS_advScheme= 98*33,
(PID.TID 0000.0001)    5  PTRACERS_diffKh=    98*0.E3,
(PID.TID 0000.0001)    6  PTRACERS_diffKr=    98*1.E-5,
(PID.TID 0000.0001)    7  PTRACERS_useGMRedi= 98*.FALSE. ,
(PID.TID 0000.0001)    8  PTRACERS_useKPP=    98*.FALSE. ,
(PID.TID 0000.0001)    9  PTRACERS_names(1)= 'DIC',
(PID.TID 0000.0001)   10  PTRACERS_names(2)= 'NH4',
(PID.TID 0000.0001)   11  PTRACERS_names(3)= 'NO2',
(PID.TID 0000.0001)   12  PTRACERS_names(4)= 'NO3',
(PID.TID 0000.0001)   13  PTRACERS_names(5)= 'PO4',
(PID.TID 0000.0001)   14  PTRACERS_names(6)= 'SiO2',
(PID.TID 0000.0001)   15  PTRACERS_names(7)= 'FeT',
(PID.TID 0000.0001)   16  PTRACERS_names(8)= 'DOC',
(PID.TID 0000.0001)   17  PTRACERS_names(9)= 'DON',
(PID.TID 0000.0001)   18  PTRACERS_names(10)= 'DOP',
(PID.TID 0000.0001)   19  PTRACERS_names(11)= 'DOFe',
(PID.TID 0000.0001)   20  PTRACERS_names(12)= 'POC',
(PID.TID 0000.0001)   21  PTRACERS_names(13)= 'PON',
(PID.TID 0000.0001)   22  PTRACERS_names(14)= 'POP',
(PID.TID 0000.0001)   23  PTRACERS_names(15)= 'POSi',
(PID.TID 0000.0001)   24  PTRACERS_names(16)= 'POFe',
(PID.TID 0000.0001)   25  PTRACERS_names(17)= 'PIC',
(PID.TID 0000.0001)   26  PTRACERS_names(18)= 'CDOM',
(PID.TID 0000.0001)   27  PTRACERS_names(19)= 'c01',
(PID.TID 0000.0001)   28  PTRACERS_names(20)= 'c02',
(PID.TID 0000.0001)   29  PTRACERS_names(21)= 'c03',
(PID.TID 0000.0001)   30  PTRACERS_names(22)= 'c04',
(PID.TID 0000.0001)   31  PTRACERS_names(23)= 'c05',
(PID.TID 0000.0001)   32  PTRACERS_names(24)= 'c06',
(PID.TID 0000.0001)   33  PTRACERS_names(25)= 'c07',
(PID.TID 0000.0001)   34  PTRACERS_names(26)= 'c08',
(PID.TID 0000.0001)   35  PTRACERS_names(27)= 'c09',
(PID.TID 0000.0001)   36  PTRACERS_names(28)= 'c10',
(PID.TID 0000.0001)   37  PTRACERS_names(29)= 'c11',
(PID.TID 0000.0001)   38  PTRACERS_names(30)= 'c12',
(PID.TID 0000.0001)   39  PTRACERS_names(31)= 'c13',
(PID.TID 0000.0001)   40  PTRACERS_names(32)= 'c14',
(PID.TID 0000.0001)   41  PTRACERS_names(33)= 'c15',
(PID.TID 0000.0001)   42  PTRACERS_names(34)= 'c16',
(PID.TID 0000.0001)   43  PTRACERS_names(35)= 'c17',
(PID.TID 0000.0001)   44  PTRACERS_names(36)= 'c18',
(PID.TID 0000.0001)   45  PTRACERS_names(37)= 'c19',
(PID.TID 0000.0001)   46  PTRACERS_names(38)= 'c20',
(PID.TID 0000.0001)   47  PTRACERS_names(39)= 'c21',
(PID.TID 0000.0001)   48  PTRACERS_names(40)= 'c22',
(PID.TID 0000.0001)   49  PTRACERS_names(41)= 'c23',
(PID.TID 0000.0001)   50  PTRACERS_names(42)= 'c24',
(PID.TID 0000.0001)   51  PTRACERS_names(43)= 'c25',
(PID.TID 0000.0001)   52  PTRACERS_names(44)= 'c26',
(PID.TID 0000.0001)   53  PTRACERS_names(45)= 'c27',
(PID.TID 0000.0001)   54  PTRACERS_names(46)= 'c28',
(PID.TID 0000.0001)   55  PTRACERS_names(47)= 'c29',
(PID.TID 0000.0001)   56  PTRACERS_names(48)= 'c30',
(PID.TID 0000.0001)   57  PTRACERS_names(49)= 'c31',
(PID.TID 0000.0001)   58  PTRACERS_names(50)= 'c32',
(PID.TID 0000.0001)   59  PTRACERS_names(51)= 'c33',
(PID.TID 0000.0001)   60  PTRACERS_names(52)= 'c34',
(PID.TID 0000.0001)   61  PTRACERS_names(53)= 'c35',
(PID.TID 0000.0001)   62  PTRACERS_names(54)= 'c36',
(PID.TID 0000.0001)   63  PTRACERS_names(55)= 'c37',
(PID.TID 0000.0001)   64  PTRACERS_names(56)= 'c38',
(PID.TID 0000.0001)   65  PTRACERS_names(57)= 'c39',
(PID.TID 0000.0001)   66  PTRACERS_names(58)= 'c40',
(PID.TID 0000.0001)   67  PTRACERS_names(59)= 'c41',
(PID.TID 0000.0001)   68  PTRACERS_names(60)= 'c42',
(PID.TID 0000.0001)   69  PTRACERS_names(61)= 'c43',
(PID.TID 0000.0001)   70  PTRACERS_names(62)= 'c44',
(PID.TID 0000.0001)   71  PTRACERS_names(63)= 'c45',
(PID.TID 0000.0001)   72  PTRACERS_names(64)= 'c46',
(PID.TID 0000.0001)   73  PTRACERS_names(65)= 'c47',
(PID.TID 0000.0001)   74  PTRACERS_names(66)= 'c48',
(PID.TID 0000.0001)   75  PTRACERS_names(67)= 'c49',
(PID.TID 0000.0001)   76  PTRACERS_names(68)= 'c50',
(PID.TID 0000.0001)   77  PTRACERS_names(69)= 'c51',
(PID.TID 0000.0001)   78  PTRACERS_names(70)= 'c52',
(PID.TID 0000.0001)   79  PTRACERS_names(71)= 'c53',
(PID.TID 0000.0001)   80  PTRACERS_names(72)= 'c54',
(PID.TID 0000.0001)   81  PTRACERS_names(73)= 'c55',
(PID.TID 0000.0001)   82  PTRACERS_names(74)= 'c56',
(PID.TID 0000.0001)   83  PTRACERS_names(75)= 'c57',
(PID.TID 0000.0001)   84  PTRACERS_names(76)= 'c58',
(PID.TID 0000.0001)   85  PTRACERS_names(77)= 'c59',
(PID.TID 0000.0001)   86  PTRACERS_names(78)= 'c60',
(PID.TID 0000.0001)   87  PTRACERS_names(79)= 'c61',
(PID.TID 0000.0001)   88  PTRACERS_names(80)= 'c62',
(PID.TID 0000.0001)   89  PTRACERS_names(81)= 'c63',
(PID.TID 0000.0001)   90  PTRACERS_names(82)= 'c64',
(PID.TID 0000.0001)   91  PTRACERS_names(83)= 'c65',
(PID.TID 0000.0001)   92  PTRACERS_names(84)= 'c66',
(PID.TID 0000.0001)   93  PTRACERS_names(85)= 'c67',
(PID.TID 0000.0001)   94  PTRACERS_names(86)= 'c68',
(PID.TID 0000.0001)   95  PTRACERS_names(87)= 'c69',
(PID.TID 0000.0001)   96  PTRACERS_names(88)= 'c70',
(PID.TID 0000.0001)   97  PTRACERS_names(89)= 'c71',
(PID.TID 0000.0001)   98  PTRACERS_names(90)= 'c72',
(PID.TID 0000.0001)   99  PTRACERS_names(91)= 'c73',
(PID.TID 0000.0001)  100  PTRACERS_names(92)= 'c74',
(PID.TID 0000.0001)  101  PTRACERS_names(93)= 'c75',
(PID.TID 0000.0001)  102  PTRACERS_names(94)= 'c76',
(PID.TID 0000.0001)  103  PTRACERS_names(95)= 'c77',
(PID.TID 0000.0001)  104  PTRACERS_names(96)= 'c78',
(PID.TID 0000.0001)  105  PTRACERS_names(97)= 'zc1',
(PID.TID 0000.0001)  106  PTRACERS_names(98)= 'zc2',
(PID.TID 0000.0001)  107  PTRACERS_units(1)='mmol C/m^3'
(PID.TID 0000.0001)  108  PTRACERS_units(2)='mmol N/m^3'
(PID.TID 0000.0001)  109  PTRACERS_units(3)='mmol N/m^3'
(PID.TID 0000.0001)  110  PTRACERS_units(4)='mmol N/m^3'
(PID.TID 0000.0001)  111  PTRACERS_units(5)='mmol P/m^3'
(PID.TID 0000.0001)  112  PTRACERS_units(6)='mmol Si/m^3'
(PID.TID 0000.0001)  113  PTRACERS_units(7)='mmol Fe/m^3'
(PID.TID 0000.0001)  114  PTRACERS_units(8)='mmol C/m^3'
(PID.TID 0000.0001)  115  PTRACERS_units(9)='mmol N/m^3'
(PID.TID 0000.0001)  116  PTRACERS_units(10)='mmol P/m^3'
(PID.TID 0000.0001)  117  PTRACERS_units(11)='mmol Fe/m^3'
(PID.TID 0000.0001)  118  PTRACERS_units(12)='mmol C/m^3'
(PID.TID 0000.0001)  119  PTRACERS_units(13)='mmol N/m^3'
(PID.TID 0000.0001)  120  PTRACERS_units(14)='mmol P/m^3'
(PID.TID 0000.0001)  121  PTRACERS_units(15)='mmol Si/m^3'
(PID.TID 0000.0001)  122  PTRACERS_units(16)='mmol Fe/m^3'
(PID.TID 0000.0001)  123  PTRACERS_units(17)='mmol C/m^3'
(PID.TID 0000.0001)  124  PTRACERS_units(18)='mmol P/m^3'
(PID.TID 0000.0001)  125  PTRACERS_units(19:98)=80*'mmol C/m^3'
(PID.TID 0000.0001)  126  PTRACERS_ref(1:35,   1)= 35*2e3,
(PID.TID 0000.0001)  127  PTRACERS_initialFile(2)='../input/input/loc1_NH4_run83_janprof.bin',
(PID.TID 0000.0001)  128  PTRACERS_initialFile(3)='../input/input/loc1_NO2_run83_janprof.bin',
(PID.TID 0000.0001)  129  PTRACERS_initialFile(4)='../input/input/loc1_nitr_janprof.bin',
(PID.TID 0000.0001)  130  PTRACERS_initialFile(5)='../input/input/loc1_phos_janprof.bin',
(PID.TID 0000.0001)  131  PTRACERS_initialFile(6)='../input/input/loc1_sil_janprof.bin',
(PID.TID 0000.0001)  132  PTRACERS_initialFile(7)='../input/input/fet_uniform.bin',
(PID.TID 0000.0001)  133  PTRACERS_ref(1:35,   8)= 35*0e0,
(PID.TID 0000.0001)  134  PTRACERS_initialFile(9)='../input/input/loc1_DON_run83_janprof.bin',
(PID.TID 0000.0001)  135  PTRACERS_initialFile(10)='../input/input/loc1_DOP_run83_janprof.bin',
(PID.TID 0000.0001)  136  PTRACERS_initialFile(11)='../input/input/loc1_DOFe_run83_janprof.bin',
(PID.TID 0000.0001)  137  PTRACERS_ref(1:35,   12)= 35*0e0,
(PID.TID 0000.0001)  138  PTRACERS_initialFile(13)='../input/input/loc1_PON_run83_janprof.bin',
(PID.TID 0000.0001)  139  PTRACERS_initialFile(14)='../input/input/loc1_POP_run83_janprof.bin',
(PID.TID 0000.0001)  140  PTRACERS_initialFile(15)='../input/input/loc1_POSi_run83_janprof.bin',
(PID.TID 0000.0001)  141  PTRACERS_initialFile(16)='../input/input/loc1_POFe_run83_janprof.bin',
(PID.TID 0000.0001)  142  PTRACERS_ref(1:35,   17)= 35*0e0,
(PID.TID 0000.0001)  143  PTRACERS_initialFile(18)='../input/input/loc1_DOP_run83_janprof.bin',
(PID.TID 0000.0001)  144  PTRACERS_initialFile(19:96)=78*'../input/input/loc1_biomass_run83_janprof.bin',
(PID.TID 0000.0001)  145  PTRACERS_initialFile(97)='../input/input/loc1_ZOOP_run83_janprof.bin',
(PID.TID 0000.0001)  146  PTRACERS_initialFile(98)='../input/input/loc1_ZOOP_run83_janprof.bin',
(PID.TID 0000.0001)  147  /
(PID.TID 0000.0001) // =======================================================
(PID.TID 0000.0001) // Parameter file "data.ptracers"
(PID.TID 0000.0001) // =======================================================
(PID.TID 0000.0001) > &PTRACERS_PARM01
(PID.TID 0000.0001) > PTRACERS_numInUse= 98,
(PID.TID 0000.0001) > PTRACERS_Iter0= 0,
(PID.TID 0000.0001) > PTRACERS_advScheme= 98*33,
(PID.TID 0000.0001) > PTRACERS_diffKh=    98*0.E3,
(PID.TID 0000.0001) > PTRACERS_diffKr=    98*1.E-5,
(PID.TID 0000.0001) > PTRACERS_useGMRedi= 98*.FALSE. ,
(PID.TID 0000.0001) > PTRACERS_useKPP=    98*.FALSE. ,
(PID.TID 0000.0001) >#
(PID.TID 0000.0001) > PTRACERS_names(1)= 'DIC',
(PID.TID 0000.0001) > PTRACERS_names(2)= 'NH4',
(PID.TID 0000.0001) > PTRACERS_names(3)= 'NO2',
(PID.TID 0000.0001) > PTRACERS_names(4)= 'NO3',
(PID.TID 0000.0001) > PTRACERS_names(5)= 'PO4',
(PID.TID 0000.0001) > PTRACERS_names(6)= 'SiO2',
(PID.TID 0000.0001) > PTRACERS_names(7)= 'FeT',
(PID.TID 0000.0001) > PTRACERS_names(8)= 'DOC',
(PID.TID 0000.0001) > PTRACERS_names(9)= 'DON',
(PID.TID 0000.0001) > PTRACERS_names(10)= 'DOP',
(PID.TID 0000.0001) > PTRACERS_names(11)= 'DOFe',
(PID.TID 0000.0001) > PTRACERS_names(12)= 'POC',
(PID.TID 0000.0001) > PTRACERS_names(13)= 'PON',
(PID.TID 0000.0001) > PTRACERS_names(14)= 'POP',
(PID.TID 0000.0001) > PTRACERS_names(15)= 'POSi',
(PID.TID 0000.0001) > PTRACERS_names(16)= 'POFe',
(PID.TID 0000.0001) > PTRACERS_names(17)= 'PIC',
(PID.TID 0000.0001) > PTRACERS_names(18)= 'CDOM',
(PID.TID 0000.0001) > PTRACERS_names(19)= 'c01',
(PID.TID 0000.0001) > PTRACERS_names(20)= 'c02',
(PID.TID 0000.0001) > PTRACERS_names(21)= 'c03',
(PID.TID 0000.0001) > PTRACERS_names(22)= 'c04',
(PID.TID 0000.0001) > PTRACERS_names(23)= 'c05',
(PID.TID 0000.0001) > PTRACERS_names(24)= 'c06',
(PID.TID 0000.0001) > PTRACERS_names(25)= 'c07',
(PID.TID 0000.0001) > PTRACERS_names(26)= 'c08',
(PID.TID 0000.0001) > PTRACERS_names(27)= 'c09',
(PID.TID 0000.0001) > PTRACERS_names(28)= 'c10',
(PID.TID 0000.0001) > PTRACERS_names(29)= 'c11',
(PID.TID 0000.0001) > PTRACERS_names(30)= 'c12',
(PID.TID 0000.0001) > PTRACERS_names(31)= 'c13',
(PID.TID 0000.0001) > PTRACERS_names(32)= 'c14',
(PID.TID 0000.0001) > PTRACERS_names(33)= 'c15',
(PID.TID 0000.0001) > PTRACERS_names(34)= 'c16',
(PID.TID 0000.0001) > PTRACERS_names(35)= 'c17',
(PID.TID 0000.0001) > PTRACERS_names(36)= 'c18',
(PID.TID 0000.0001) > PTRACERS_names(37)= 'c19',
(PID.TID 0000.0001) > PTRACERS_names(38)= 'c20',
(PID.TID 0000.0001) > PTRACERS_names(39)= 'c21',
(PID.TID 0000.0001) > PTRACERS_names(40)= 'c22',
(PID.TID 0000.0001) > PTRACERS_names(41)= 'c23',
(PID.TID 0000.0001) > PTRACERS_names(42)= 'c24',
(PID.TID 0000.0001) > PTRACERS_names(43)= 'c25',
(PID.TID 0000.0001) > PTRACERS_names(44)= 'c26',
(PID.TID 0000.0001) > PTRACERS_names(45)= 'c27',
(PID.TID 0000.0001) > PTRACERS_names(46)= 'c28',
(PID.TID 0000.0001) > PTRACERS_names(47)= 'c29',
(PID.TID 0000.0001) > PTRACERS_names(48)= 'c30',
(PID.TID 0000.0001) > PTRACERS_names(49)= 'c31',
(PID.TID 0000.0001) > PTRACERS_names(50)= 'c32',
(PID.TID 0000.0001) > PTRACERS_names(51)= 'c33',
(PID.TID 0000.0001) > PTRACERS_names(52)= 'c34',
(PID.TID 0000.0001) > PTRACERS_names(53)= 'c35',
(PID.TID 0000.0001) > PTRACERS_names(54)= 'c36',
(PID.TID 0000.0001) > PTRACERS_names(55)= 'c37',
(PID.TID 0000.0001) > PTRACERS_names(56)= 'c38',
(PID.TID 0000.0001) > PTRACERS_names(57)= 'c39',
(PID.TID 0000.0001) > PTRACERS_names(58)= 'c40',
(PID.TID 0000.0001) > PTRACERS_names(59)= 'c41',
(PID.TID 0000.0001) > PTRACERS_names(60)= 'c42',
(PID.TID 0000.0001) > PTRACERS_names(61)= 'c43',
(PID.TID 0000.0001) > PTRACERS_names(62)= 'c44',
(PID.TID 0000.0001) > PTRACERS_names(63)= 'c45',
(PID.TID 0000.0001) > PTRACERS_names(64)= 'c46',
(PID.TID 0000.0001) > PTRACERS_names(65)= 'c47',
(PID.TID 0000.0001) > PTRACERS_names(66)= 'c48',
(PID.TID 0000.0001) > PTRACERS_names(67)= 'c49',
(PID.TID 0000.0001) > PTRACERS_names(68)= 'c50',
(PID.TID 0000.0001) > PTRACERS_names(69)= 'c51',
(PID.TID 0000.0001) > PTRACERS_names(70)= 'c52',
(PID.TID 0000.0001) > PTRACERS_names(71)= 'c53',
(PID.TID 0000.0001) > PTRACERS_names(72)= 'c54',
(PID.TID 0000.0001) > PTRACERS_names(73)= 'c55',
(PID.TID 0000.0001) > PTRACERS_names(74)= 'c56',
(PID.TID 0000.0001) > PTRACERS_names(75)= 'c57',
(PID.TID 0000.0001) > PTRACERS_names(76)= 'c58',
(PID.TID 0000.0001) > PTRACERS_names(77)= 'c59',
(PID.TID 0000.0001) > PTRACERS_names(78)= 'c60',
(PID.TID 0000.0001) > PTRACERS_names(79)= 'c61',
(PID.TID 0000.0001) > PTRACERS_names(80)= 'c62',
(PID.TID 0000.0001) > PTRACERS_names(81)= 'c63',
(PID.TID 0000.0001) > PTRACERS_names(82)= 'c64',
(PID.TID 0000.0001) > PTRACERS_names(83)= 'c65',
(PID.TID 0000.0001) > PTRACERS_names(84)= 'c66',
(PID.TID 0000.0001) > PTRACERS_names(85)= 'c67',
(PID.TID 0000.0001) > PTRACERS_names(86)= 'c68',
(PID.TID 0000.0001) > PTRACERS_names(87)= 'c69',
(PID.TID 0000.0001) > PTRACERS_names(88)= 'c70',
(PID.TID 0000.0001) > PTRACERS_names(89)= 'c71',
(PID.TID 0000.0001) > PTRACERS_names(90)= 'c72',
(PID.TID 0000.0001) > PTRACERS_names(91)= 'c73',
(PID.TID 0000.0001) > PTRACERS_names(92)= 'c74',
(PID.TID 0000.0001) > PTRACERS_names(93)= 'c75',
(PID.TID 0000.0001) > PTRACERS_names(94)= 'c76',
(PID.TID 0000.0001) > PTRACERS_names(95)= 'c77',
(PID.TID 0000.0001) > PTRACERS_names(96)= 'c78',
(PID.TID 0000.0001) > PTRACERS_names(97)= 'zc1',
(PID.TID 0000.0001) > PTRACERS_names(98)= 'zc2',
(PID.TID 0000.0001) >#
(PID.TID 0000.0001) > PTRACERS_units(1)='mmol C/m^3'
(PID.TID 0000.0001) > PTRACERS_units(2)='mmol N/m^3'
(PID.TID 0000.0001) > PTRACERS_units(3)='mmol N/m^3'
(PID.TID 0000.0001) > PTRACERS_units(4)='mmol N/m^3'
(PID.TID 0000.0001) > PTRACERS_units(5)='mmol P/m^3'
(PID.TID 0000.0001) > PTRACERS_units(6)='mmol Si/m^3'
(PID.TID 0000.0001) > PTRACERS_units(7)='mmol Fe/m^3'
(PID.TID 0000.0001) > PTRACERS_units(8)='mmol C/m^3'
(PID.TID 0000.0001) > PTRACERS_units(9)='mmol N/m^3'
(PID.TID 0000.0001) > PTRACERS_units(10)='mmol P/m^3'
(PID.TID 0000.0001) > PTRACERS_units(11)='mmol Fe/m^3'
(PID.TID 0000.0001) > PTRACERS_units(12)='mmol C/m^3'
(PID.TID 0000.0001) > PTRACERS_units(13)='mmol N/m^3'
(PID.TID 0000.0001) > PTRACERS_units(14)='mmol P/m^3'
(PID.TID 0000.0001) > PTRACERS_units(15)='mmol Si/m^3'
(PID.TID 0000.0001) > PTRACERS_units(16)='mmol Fe/m^3'
(PID.TID 0000.0001) > PTRACERS_units(17)='mmol C/m^3'
(PID.TID 0000.0001) > PTRACERS_units(18)='mmol P/m^3'
(PID.TID 0000.0001) > PTRACERS_units(19:98)=80*'mmol C/m^3'
(PID.TID 0000.0001) >#
(PID.TID 0000.0001) > PTRACERS_ref(1:35,   1)= 35*2e3,
(PID.TID 0000.0001) > PTRACERS_initialFile(2)='../input/input/loc1_NH4_run83_janprof.bin',
(PID.TID 0000.0001) > PTRACERS_initialFile(3)='../input/input/loc1_NO2_run83_janprof.bin',
(PID.TID 0000.0001) > PTRACERS_initialFile(4)='../input/input/loc1_nitr_janprof.bin',
(PID.TID 0000.0001) > PTRACERS_initialFile(5)='../input/input/loc1_phos_janprof.bin',
(PID.TID 0000.0001) > PTRACERS_initialFile(6)='../input/input/loc1_sil_janprof.bin',
(PID.TID 0000.0001) > PTRACERS_initialFile(7)='../input/input/fet_uniform.bin',
(PID.TID 0000.0001) > PTRACERS_ref(1:35,   8)= 35*0e0,
(PID.TID 0000.0001) > PTRACERS_initialFile(9)='../input/input/loc1_DON_run83_janprof.bin',
(PID.TID 0000.0001) > PTRACERS_initialFile(10)='../input/input/loc1_DOP_run83_janprof.bin',
(PID.TID 0000.0001) > PTRACERS_initialFile(11)='../input/input/loc1_DOFe_run83_janprof.bin',
(PID.TID 0000.0001) > PTRACERS_ref(1:35,   12)= 35*0e0,
(PID.TID 0000.0001) > PTRACERS_initialFile(13)='../input/input/loc1_PON_run83_janprof.bin',
(PID.TID 0000.0001) > PTRACERS_initialFile(14)='../input/input/loc1_POP_run83_janprof.bin',
(PID.TID 0000.0001) > PTRACERS_initialFile(15)='../input/input/loc1_POSi_run83_janprof.bin',
(PID.TID 0000.0001) > PTRACERS_initialFile(16)='../input/input/loc1_POFe_run83_janprof.bin',
(PID.TID 0000.0001) > PTRACERS_ref(1:35,   17)= 35*0e0,
(PID.TID 0000.0001) > PTRACERS_initialFile(18)='../input/input/loc1_DOP_run83_janprof.bin',
(PID.TID 0000.0001) > PTRACERS_initialFile(19:96)=78*'../input/input/loc1_biomass_run83_janprof.bin',
(PID.TID 0000.0001) > PTRACERS_initialFile(97)='../input/input/loc1_ZOOP_run83_janprof.bin',
(PID.TID 0000.0001) > PTRACERS_initialFile(98)='../input/input/loc1_ZOOP_run83_janprof.bin',
(PID.TID 0000.0001) > /
(PID.TID 0000.0001) 
(PID.TID 0000.0001)  PTRACERS_READPARMS: finished reading data.ptracers
(PID.TID 0000.0001)  GCHEM_READPARMS: opening data.gchem
(PID.TID 0000.0001)  OPEN_COPY_DATA_FILE: opening file data.gchem
(PID.TID 0000.0001) // =======================================================
(PID.TID 0000.0001) // Removing comments from "data.gchem"
(PID.TID 0000.0001) // =======================================================
(PID.TID 0000.0001)    1  &GCHEM_PARM01
(PID.TID 0000.0001)    2   useGUD=.TRUE.,
(PID.TID 0000.0001)    3   nsubtime=1,
(PID.TID 0000.0001)    4  /
(PID.TID 0000.0001) // =======================================================
(PID.TID 0000.0001) // Parameter file "data.gchem"
(PID.TID 0000.0001) // =======================================================
(PID.TID 0000.0001) > &GCHEM_PARM01
(PID.TID 0000.0001) >  useGUD=.TRUE.,
(PID.TID 0000.0001) >  nsubtime=1,
(PID.TID 0000.0001) > /
(PID.TID 0000.0001) 
(PID.TID 0000.0001)  GCHEM_READPARMS: finished reading data.gchem
(PID.TID 0000.0001)  GUD_READPARMS: opening data.gud
(PID.TID 0000.0001)  OPEN_COPY_DATA_FILE: opening file data.gud
(PID.TID 0000.0001) // =======================================================
(PID.TID 0000.0001) // Removing comments from "data.gud"
(PID.TID 0000.0001) // =======================================================
(PID.TID 0000.0001)    1  &GUD_FORCING_PARAMS
(PID.TID 0000.0001)    2  ironFile='../input/input/loc1_FeFlux_monsurf.bin',
(PID.TID 0000.0001)    3  ironPeriod= -12.
(PID.TID 0000.0001)    4  gud_inscal_iron= 1000.,
(PID.TID 0000.0001)    5  gud_chlInitBalanced= .TRUE.,
(PID.TID 0000.0001)    6  OASIM_EdFile( 1)='../input/input/loc1_oasim_edp01_below.bin',
(PID.TID 0000.0001)    7  OASIM_EdFile( 2)='../input/input/loc1_oasim_edp02_below.bin',
(PID.TID 0000.0001)    8  OASIM_EdFile( 3)='../input/input/loc1_oasim_edp03_below.bin',
(PID.TID 0000.0001)    9  OASIM_EdFile( 4)='../input/input/loc1_oasim_edp04_below.bin',
(PID.TID 0000.0001)   10  OASIM_EdFile( 5)='../input/input/loc1_oasim_edp05_below.bin',
(PID.TID 0000.0001)   11  OASIM_EdFile( 6)='../input/input/loc1_oasim_edp06_below.bin',
(PID.TID 0000.0001)   12  OASIM_EdFile( 7)='../input/input/loc1_oasim_edp07_below.bin',
(PID.TID 0000.0001)   13  OASIM_EdFile( 8)='../input/input/loc1_oasim_edp08_below.bin',
(PID.TID 0000.0001)   14  OASIM_EdFile( 9)='../input/input/loc1_oasim_edp09_below.bin',
(PID.TID 0000.0001)   15  OASIM_EdFile(10)='../input/input/loc1_oasim_edp10_below.bin',
(PID.TID 0000.0001)   16  OASIM_EdFile(11)='../input/input/loc1_oasim_edp11_below.bin',
(PID.TID 0000.0001)   17  OASIM_EdFile(12)='../input/input/loc1_oasim_edp12_below.bin',
(PID.TID 0000.0001)   18  OASIM_EdFile(13)='../input/input/loc1_oasim_edp13_below.bin',
(PID.TID 0000.0001)   19  OASIM_EsFile( 1)='../input/input/loc1_oasim_esp01_below.bin',
(PID.TID 0000.0001)   20  OASIM_EsFile( 2)='../input/input/loc1_oasim_esp02_below.bin',
(PID.TID 0000.0001)   21  OASIM_EsFile( 3)='../input/input/loc1_oasim_esp03_below.bin',
(PID.TID 0000.0001)   22  OASIM_EsFile( 4)='../input/input/loc1_oasim_esp04_below.bin',
(PID.TID 0000.0001)   23  OASIM_EsFile( 5)='../input/input/loc1_oasim_esp05_below.bin',
(PID.TID 0000.0001)   24  OASIM_EsFile( 6)='../input/input/loc1_oasim_esp06_below.bin',
(PID.TID 0000.0001)   25  OASIM_EsFile( 7)='../input/input/loc1_oasim_esp07_below.bin',
(PID.TID 0000.0001)   26  OASIM_EsFile( 8)='../input/input/loc1_oasim_esp08_below.bin',
(PID.TID 0000.0001)   27  OASIM_EsFile( 9)='../input/input/loc1_oasim_esp09_below.bin',
(PID.TID 0000.0001)   28  OASIM_EsFile(10)='../input/input/loc1_oasim_esp10_below.bin',
(PID.TID 0000.0001)   29  OASIM_EsFile(11)='../input/input/loc1_oasim_esp11_below.bin',
(PID.TID 0000.0001)   30  OASIM_EsFile(12)='../input/input/loc1_oasim_esp12_below.bin',
(PID.TID 0000.0001)   31  OASIM_EsFile(13)='../input/input/loc1_oasim_esp13_below.bin',
(PID.TID 0000.0001)   32  OASIMPeriod= -12.,
(PID.TID 0000.0001)   33  /
(PID.TID 0000.0001)   34  &GUD_PARAMS
(PID.TID 0000.0001)   35  gud_seed=11231,
(PID.TID 0000.0001)   36  gud_read_phos= T,
(PID.TID 0000.0001)   37  /
(PID.TID 0000.0001)   38  &GUD_RADTRANS_PARAMS
(PID.TID 0000.0001)   39  gud_waterabsorbFile='abw25par.dat',
(PID.TID 0000.0001)   40  gud_phytoabsorbFile='optics_phyto_9_bandave25.txt',
(PID.TID 0000.0001)   41  gud_particleabsorbFile='optics_detritus_3bb.dat',
(PID.TID 0000.0001)   42  gud_radtrans_kmax=22,
(PID.TID 0000.0001)   43  gud_waveband_edges=400,412.5,437.5,462.5,487.5,512.5,537.5,562.5,587.5,612.5,637.5,662.5,687.5,700,
(PID.TID 0000.0001)   44  gud_waveband_centers=400,425,450,475,500,525,550,575,600,625,650,675,700,
(PID.TID 0000.0001)   45  /
(PID.TID 0000.0001)   46  &GUD_CDOM_PARAMS
(PID.TID 0000.0001)   47  /
(PID.TID 0000.0001)   48  &GUD_RANDOM_PARAMS
(PID.TID 0000.0001)   49  oldTwoGrazers= .TRUE.,
(PID.TID 0000.0001)   50  diatom_growfac= 1.0,
(PID.TID 0000.0001)   51  /
(PID.TID 0000.0001)   52  &GUD_TRAIT_PARAMS
(PID.TID 0000.0001)   53  /
(PID.TID 0000.0001) // =======================================================
(PID.TID 0000.0001) // Parameter file "data.gud"
(PID.TID 0000.0001) // =======================================================
(PID.TID 0000.0001) > &GUD_FORCING_PARAMS
(PID.TID 0000.0001) > ironFile='../input/input/loc1_FeFlux_monsurf.bin',
(PID.TID 0000.0001) > ironPeriod= -12.
(PID.TID 0000.0001) > gud_inscal_iron= 1000.,
(PID.TID 0000.0001) > gud_chlInitBalanced= .TRUE.,
(PID.TID 0000.0001) >#
(PID.TID 0000.0001) >#PARFile='../input/input/loc1_PAR_monsurf.bin',
(PID.TID 0000.0001) >#
(PID.TID 0000.0001) > OASIM_EdFile( 1)='../input/input/loc1_oasim_edp01_below.bin',
(PID.TID 0000.0001) > OASIM_EdFile( 2)='../input/input/loc1_oasim_edp02_below.bin',
(PID.TID 0000.0001) > OASIM_EdFile( 3)='../input/input/loc1_oasim_edp03_below.bin',
(PID.TID 0000.0001) > OASIM_EdFile( 4)='../input/input/loc1_oasim_edp04_below.bin',
(PID.TID 0000.0001) > OASIM_EdFile( 5)='../input/input/loc1_oasim_edp05_below.bin',
(PID.TID 0000.0001) > OASIM_EdFile( 6)='../input/input/loc1_oasim_edp06_below.bin',
(PID.TID 0000.0001) > OASIM_EdFile( 7)='../input/input/loc1_oasim_edp07_below.bin',
(PID.TID 0000.0001) > OASIM_EdFile( 8)='../input/input/loc1_oasim_edp08_below.bin',
(PID.TID 0000.0001) > OASIM_EdFile( 9)='../input/input/loc1_oasim_edp09_below.bin',
(PID.TID 0000.0001) > OASIM_EdFile(10)='../input/input/loc1_oasim_edp10_below.bin',
(PID.TID 0000.0001) > OASIM_EdFile(11)='../input/input/loc1_oasim_edp11_below.bin',
(PID.TID 0000.0001) > OASIM_EdFile(12)='../input/input/loc1_oasim_edp12_below.bin',
(PID.TID 0000.0001) > OASIM_EdFile(13)='../input/input/loc1_oasim_edp13_below.bin',
(PID.TID 0000.0001) > OASIM_EsFile( 1)='../input/input/loc1_oasim_esp01_below.bin',
(PID.TID 0000.0001) > OASIM_EsFile( 2)='../input/input/loc1_oasim_esp02_below.bin',
(PID.TID 0000.0001) > OASIM_EsFile( 3)='../input/input/loc1_oasim_esp03_below.bin',
(PID.TID 0000.0001) > OASIM_EsFile( 4)='../input/input/loc1_oasim_esp04_below.bin',
(PID.TID 0000.0001) > OASIM_EsFile( 5)='../input/input/loc1_oasim_esp05_below.bin',
(PID.TID 0000.0001) > OASIM_EsFile( 6)='../input/input/loc1_oasim_esp06_below.bin',
(PID.TID 0000.0001) > OASIM_EsFile( 7)='../input/input/loc1_oasim_esp07_below.bin',
(PID.TID 0000.0001) > OASIM_EsFile( 8)='../input/input/loc1_oasim_esp08_below.bin',
(PID.TID 0000.0001) > OASIM_EsFile( 9)='../input/input/loc1_oasim_esp09_below.bin',
(PID.TID 0000.0001) > OASIM_EsFile(10)='../input/input/loc1_oasim_esp10_below.bin',
(PID.TID 0000.0001) > OASIM_EsFile(11)='../input/input/loc1_oasim_esp11_below.bin',
(PID.TID 0000.0001) > OASIM_EsFile(12)='../input/input/loc1_oasim_esp12_below.bin',
(PID.TID 0000.0001) > OASIM_EsFile(13)='../input/input/loc1_oasim_esp13_below.bin',
(PID.TID 0000.0001) > OASIMPeriod= -12.,
(PID.TID 0000.0001) > /
(PID.TID 0000.0001) > &GUD_PARAMS
(PID.TID 0000.0001) > gud_seed=11231,
(PID.TID 0000.0001) > gud_read_phos= T,
(PID.TID 0000.0001) > /
(PID.TID 0000.0001) > &GUD_RADTRANS_PARAMS
(PID.TID 0000.0001) > gud_waterabsorbFile='abw25par.dat',
(PID.TID 0000.0001) > gud_phytoabsorbFile='optics_phyto_9_bandave25.txt',
(PID.TID 0000.0001) > gud_particleabsorbFile='optics_detritus_3bb.dat',
(PID.TID 0000.0001) >#gud_aCDOMFile='aCDOM13amtVK2006.dat',
(PID.TID 0000.0001) > gud_radtrans_kmax=22,
(PID.TID 0000.0001) > gud_waveband_edges=400,412.5,437.5,462.5,487.5,512.5,537.5,562.5,587.5,612.5,637.5,662.5,687.5,700,
(PID.TID 0000.0001) > gud_waveband_centers=400,425,450,475,500,525,550,575,600,625,650,675,700,
(PID.TID 0000.0001) > /
(PID.TID 0000.0001) > &GUD_CDOM_PARAMS
(PID.TID 0000.0001) > /
(PID.TID 0000.0001) > &GUD_RANDOM_PARAMS
(PID.TID 0000.0001) > oldTwoGrazers= .TRUE.,
(PID.TID 0000.0001) > diatom_growfac= 1.0,
(PID.TID 0000.0001) > /
(PID.TID 0000.0001) > &GUD_TRAIT_PARAMS
(PID.TID 0000.0001) > /
(PID.TID 0000.0001) 
(PID.TID 0000.0001)  ===================================
(PID.TID 0000.0001)  DIAGNOSTICS_READPARMS: opening data.diagnostics
(PID.TID 0000.0001)  OPEN_COPY_DATA_FILE: opening file data.diagnostics
(PID.TID 0000.0001) // =======================================================
(PID.TID 0000.0001) // Removing comments from "data.diagnostics"
(PID.TID 0000.0001) // =======================================================
(PID.TID 0000.0001)    1  &diagnostics_list
(PID.TID 0000.0001)    2   frequency(1) = 3600.,
(PID.TID 0000.0001)    3   fields( 1,1) = 'TRAC01  ',
(PID.TID 0000.0001)    4   fields( 2,1) = 'TRAC02  ',
(PID.TID 0000.0001)    5   fields( 3,1) = 'TRAC03  ',
(PID.TID 0000.0001)    6   fields( 4,1) = 'TRAC04  ',
(PID.TID 0000.0001)    7   fields( 5,1) = 'TRAC05  ',
(PID.TID 0000.0001)    8   fields( 6,1) = 'TRAC06  ',
(PID.TID 0000.0001)    9   fields( 7,1) = 'TRAC07  ',
(PID.TID 0000.0001)   10   fields( 8,1) = 'TRAC08  ',
(PID.TID 0000.0001)   11   fields( 9,1) = 'TRAC09  ',
(PID.TID 0000.0001)   12   fields(10,1) = 'TRAC10  ',
(PID.TID 0000.0001)   13   fields(11,1) = 'TRAC11  ',
(PID.TID 0000.0001)   14   fields(12,1) = 'TRAC12  ',
(PID.TID 0000.0001)   15   fields(13,1) = 'TRAC13  ',
(PID.TID 0000.0001)   16   fields(14,1) = 'TRAC14  ',
(PID.TID 0000.0001)   17   fields(15,1) = 'TRAC15  ',
(PID.TID 0000.0001)   18   fields(16,1) = 'TRAC16  ',
(PID.TID 0000.0001)   19   fields(17,1) = 'TRAC17  ',
(PID.TID 0000.0001)   20   fields(18,1) = 'TRAC18  ',
(PID.TID 0000.0001)   21   fields(19,1) = 'TRAC19  ',
(PID.TID 0000.0001)   22   fields(20,1) = 'TRAC20  ',
(PID.TID 0000.0001)   23   fields(21,1) = 'TRAC21  ',
(PID.TID 0000.0001)   24   fields(22,1) = 'TRAC22  ',
(PID.TID 0000.0001)   25   fields(23,1) = 'TRAC23  ',
(PID.TID 0000.0001)   26   fields(24,1) = 'TRAC24  ',
(PID.TID 0000.0001)   27   fields(25,1) = 'TRAC25  ',
(PID.TID 0000.0001)   28   fields(26,1) = 'TRAC26  ',
(PID.TID 0000.0001)   29   fields(27,1) = 'TRAC27  ',
(PID.TID 0000.0001)   30   fields(28,1) = 'TRAC28  ',
(PID.TID 0000.0001)   31   fields(29,1) = 'TRAC29  ',
(PID.TID 0000.0001)   32   fields(30,1) = 'TRAC30  ',
(PID.TID 0000.0001)   33   fields(31,1) = 'TRAC31  ',
(PID.TID 0000.0001)   34   fields(32,1) = 'TRAC32  ',
(PID.TID 0000.0001)   35   fields(33,1) = 'TRAC33  ',
(PID.TID 0000.0001)   36   fields(34,1) = 'TRAC34  ',
(PID.TID 0000.0001)   37   fields(35,1) = 'TRAC35  ',
(PID.TID 0000.0001)   38   fields(36,1) = 'TRAC36  ',
(PID.TID 0000.0001)   39   fields(37,1) = 'TRAC37  ',
(PID.TID 0000.0001)   40   fields(38,1) = 'TRAC38  ',
(PID.TID 0000.0001)   41   fields(39,1) = 'TRAC39  ',
(PID.TID 0000.0001)   42   fields(40,1) = 'TRAC40  ',
(PID.TID 0000.0001)   43   fields(41,1) = 'TRAC41  ',
(PID.TID 0000.0001)   44   fields(42,1) = 'TRAC42  ',
(PID.TID 0000.0001)   45   fields(43,1) = 'TRAC43  ',
(PID.TID 0000.0001)   46   fields(44,1) = 'TRAC44  ',
(PID.TID 0000.0001)   47   fields(45,1) = 'TRAC45  ',
(PID.TID 0000.0001)   48   fields(46,1) = 'TRAC46  ',
(PID.TID 0000.0001)   49   fields(47,1) = 'TRAC47  ',
(PID.TID 0000.0001)   50   fields(48,1) = 'TRAC48  ',
(PID.TID 0000.0001)   51   fields(49,1) = 'TRAC49  ',
(PID.TID 0000.0001)   52   fields(50,1) = 'TRAC50  ',
(PID.TID 0000.0001)   53   fields(51,1) = 'TRAC51  ',
(PID.TID 0000.0001)   54   fields(52,1) = 'TRAC52  ',
(PID.TID 0000.0001)   55   fields(53,1) = 'TRAC53  ',
(PID.TID 0000.0001)   56   fields(54,1) = 'TRAC54  ',
(PID.TID 0000.0001)   57   fields(55,1) = 'TRAC55  ',
(PID.TID 0000.0001)   58   fields(56,1) = 'TRAC56  ',
(PID.TID 0000.0001)   59   fields(57,1) = 'TRAC57  ',
(PID.TID 0000.0001)   60   fields(58,1) = 'TRAC58  ',
(PID.TID 0000.0001)   61   fields(59,1) = 'TRAC59  ',
(PID.TID 0000.0001)   62   fields(60,1) = 'TRAC60  ',
(PID.TID 0000.0001)   63   fields(61,1) = 'TRAC61  ',
(PID.TID 0000.0001)   64   fields(62,1) = 'TRAC62  ',
(PID.TID 0000.0001)   65   fields(63,1) = 'TRAC63  ',
(PID.TID 0000.0001)   66   fields(64,1) = 'TRAC64  ',
(PID.TID 0000.0001)   67   fields(65,1) = 'TRAC65  ',
(PID.TID 0000.0001)   68   fields(66,1) = 'TRAC66  ',
(PID.TID 0000.0001)   69   fields(67,1) = 'TRAC67  ',
(PID.TID 0000.0001)   70   fields(68,1) = 'TRAC68  ',
(PID.TID 0000.0001)   71   fields(69,1) = 'TRAC69  ',
(PID.TID 0000.0001)   72   fields(70,1) = 'TRAC70  ',
(PID.TID 0000.0001)   73   fields(71,1) = 'TRAC71  ',
(PID.TID 0000.0001)   74   fields(72,1) = 'TRAC72  ',
(PID.TID 0000.0001)   75   fields(73,1) = 'TRAC73  ',
(PID.TID 0000.0001)   76   fields(74,1) = 'TRAC74  ',
(PID.TID 0000.0001)   77   fields(75,1) = 'TRAC75  ',
(PID.TID 0000.0001)   78   fields(76,1) = 'TRAC76  ',
(PID.TID 0000.0001)   79   fields(77,1) = 'TRAC77  ',
(PID.TID 0000.0001)   80   fields(78,1) = 'TRAC78  ',
(PID.TID 0000.0001)   81   fields(79,1) = 'TRAC79  ',
(PID.TID 0000.0001)   82   fields(80,1) = 'TRAC80  ',
(PID.TID 0000.0001)   83   fields(81,1) = 'TRAC81  ',
(PID.TID 0000.0001)   84   fields(82,1) = 'TRAC82  ',
(PID.TID 0000.0001)   85   fields(83,1) = 'TRAC83  ',
(PID.TID 0000.0001)   86   fields(84,1) = 'TRAC84  ',
(PID.TID 0000.0001)   87   fields(85,1) = 'TRAC85  ',
(PID.TID 0000.0001)   88   fields(86,1) = 'TRAC86  ',
(PID.TID 0000.0001)   89   fields(87,1) = 'TRAC87  ',
(PID.TID 0000.0001)   90   fields(88,1) = 'TRAC88  ',
(PID.TID 0000.0001)   91   fields(89,1) = 'TRAC89  ',
(PID.TID 0000.0001)   92   fields(90,1) = 'TRAC90  ',
(PID.TID 0000.0001)   93   fields(91,1) = 'TRAC91  ',
(PID.TID 0000.0001)   94   fields(92,1) = 'TRAC92  ',
(PID.TID 0000.0001)   95   fields(93,1) = 'TRAC93  ',
(PID.TID 0000.0001)   96   fields(94,1) = 'TRAC94  ',
(PID.TID 0000.0001)   97   fields(95,1) = 'TRAC95  ',
(PID.TID 0000.0001)   98   fields(96,1) = 'TRAC96  ',
(PID.TID 0000.0001)   99   fields(97,1) = 'TRAC97  ',
(PID.TID 0000.0001)  100   fields(98,1) = 'TRAC98  ',
(PID.TID 0000.0001)  101     filename(1) = 'gud',
(PID.TID 0000.0001)  102  /
(PID.TID 0000.0001)  103
(PID.TID 0000.0001)  104  &DIAG_STATIS_PARMS
(PID.TID 0000.0001)  105  diagst_mnc=.FALSE.,
(PID.TID 0000.0001)  106  /
(PID.TID 0000.0001) // =======================================================
(PID.TID 0000.0001) // Parameter file "data.diagnostics"
(PID.TID 0000.0001) // =======================================================
(PID.TID 0000.0001) ># Gud diagnostics
(PID.TID 0000.0001) ># ==================
(PID.TID 0000.0001) > &diagnostics_list
(PID.TID 0000.0001) >#
(PID.TID 0000.0001) >  frequency(1) = 3600.,
(PID.TID 0000.0001) >  fields( 1,1) = 'TRAC01  ',
(PID.TID 0000.0001) >  fields( 2,1) = 'TRAC02  ',
(PID.TID 0000.0001) >  fields( 3,1) = 'TRAC03  ',
(PID.TID 0000.0001) >  fields( 4,1) = 'TRAC04  ',
(PID.TID 0000.0001) >  fields( 5,1) = 'TRAC05  ',
(PID.TID 0000.0001) >  fields( 6,1) = 'TRAC06  ',
(PID.TID 0000.0001) >  fields( 7,1) = 'TRAC07  ',
(PID.TID 0000.0001) >  fields( 8,1) = 'TRAC08  ',
(PID.TID 0000.0001) >  fields( 9,1) = 'TRAC09  ',
(PID.TID 0000.0001) >  fields(10,1) = 'TRAC10  ',
(PID.TID 0000.0001) >  fields(11,1) = 'TRAC11  ',
(PID.TID 0000.0001) >  fields(12,1) = 'TRAC12  ',
(PID.TID 0000.0001) >  fields(13,1) = 'TRAC13  ',
(PID.TID 0000.0001) >  fields(14,1) = 'TRAC14  ',
(PID.TID 0000.0001) >  fields(15,1) = 'TRAC15  ',
(PID.TID 0000.0001) >  fields(16,1) = 'TRAC16  ',
(PID.TID 0000.0001) >  fields(17,1) = 'TRAC17  ',
(PID.TID 0000.0001) >  fields(18,1) = 'TRAC18  ',
(PID.TID 0000.0001) >  fields(19,1) = 'TRAC19  ',
(PID.TID 0000.0001) >  fields(20,1) = 'TRAC20  ',
(PID.TID 0000.0001) >  fields(21,1) = 'TRAC21  ',
(PID.TID 0000.0001) >  fields(22,1) = 'TRAC22  ',
(PID.TID 0000.0001) >  fields(23,1) = 'TRAC23  ',
(PID.TID 0000.0001) >  fields(24,1) = 'TRAC24  ',
(PID.TID 0000.0001) >  fields(25,1) = 'TRAC25  ',
(PID.TID 0000.0001) >  fields(26,1) = 'TRAC26  ',
(PID.TID 0000.0001) >  fields(27,1) = 'TRAC27  ',
(PID.TID 0000.0001) >  fields(28,1) = 'TRAC28  ',
(PID.TID 0000.0001) >  fields(29,1) = 'TRAC29  ',
(PID.TID 0000.0001) >  fields(30,1) = 'TRAC30  ',
(PID.TID 0000.0001) >  fields(31,1) = 'TRAC31  ',
(PID.TID 0000.0001) >  fields(32,1) = 'TRAC32  ',
(PID.TID 0000.0001) >  fields(33,1) = 'TRAC33  ',
(PID.TID 0000.0001) >  fields(34,1) = 'TRAC34  ',
(PID.TID 0000.0001) >  fields(35,1) = 'TRAC35  ',
(PID.TID 0000.0001) >  fields(36,1) = 'TRAC36  ',
(PID.TID 0000.0001) >  fields(37,1) = 'TRAC37  ',
(PID.TID 0000.0001) >  fields(38,1) = 'TRAC38  ',
(PID.TID 0000.0001) >  fields(39,1) = 'TRAC39  ',
(PID.TID 0000.0001) >  fields(40,1) = 'TRAC40  ',
(PID.TID 0000.0001) >  fields(41,1) = 'TRAC41  ',
(PID.TID 0000.0001) >  fields(42,1) = 'TRAC42  ',
(PID.TID 0000.0001) >  fields(43,1) = 'TRAC43  ',
(PID.TID 0000.0001) >  fields(44,1) = 'TRAC44  ',
(PID.TID 0000.0001) >  fields(45,1) = 'TRAC45  ',
(PID.TID 0000.0001) >  fields(46,1) = 'TRAC46  ',
(PID.TID 0000.0001) >  fields(47,1) = 'TRAC47  ',
(PID.TID 0000.0001) >  fields(48,1) = 'TRAC48  ',
(PID.TID 0000.0001) >  fields(49,1) = 'TRAC49  ',
(PID.TID 0000.0001) >  fields(50,1) = 'TRAC50  ',
(PID.TID 0000.0001) >  fields(51,1) = 'TRAC51  ',
(PID.TID 0000.0001) >  fields(52,1) = 'TRAC52  ',
(PID.TID 0000.0001) >  fields(53,1) = 'TRAC53  ',
(PID.TID 0000.0001) >  fields(54,1) = 'TRAC54  ',
(PID.TID 0000.0001) >  fields(55,1) = 'TRAC55  ',
(PID.TID 0000.0001) >  fields(56,1) = 'TRAC56  ',
(PID.TID 0000.0001) >  fields(57,1) = 'TRAC57  ',
(PID.TID 0000.0001) >  fields(58,1) = 'TRAC58  ',
(PID.TID 0000.0001) >  fields(59,1) = 'TRAC59  ',
(PID.TID 0000.0001) >  fields(60,1) = 'TRAC60  ',
(PID.TID 0000.0001) >  fields(61,1) = 'TRAC61  ',
(PID.TID 0000.0001) >  fields(62,1) = 'TRAC62  ',
(PID.TID 0000.0001) >  fields(63,1) = 'TRAC63  ',
(PID.TID 0000.0001) >  fields(64,1) = 'TRAC64  ',
(PID.TID 0000.0001) >  fields(65,1) = 'TRAC65  ',
(PID.TID 0000.0001) >  fields(66,1) = 'TRAC66  ',
(PID.TID 0000.0001) >  fields(67,1) = 'TRAC67  ',
(PID.TID 0000.0001) >  fields(68,1) = 'TRAC68  ',
(PID.TID 0000.0001) >  fields(69,1) = 'TRAC69  ',
(PID.TID 0000.0001) >  fields(70,1) = 'TRAC70  ',
(PID.TID 0000.0001) >  fields(71,1) = 'TRAC71  ',
(PID.TID 0000.0001) >  fields(72,1) = 'TRAC72  ',
(PID.TID 0000.0001) >  fields(73,1) = 'TRAC73  ',
(PID.TID 0000.0001) >  fields(74,1) = 'TRAC74  ',
(PID.TID 0000.0001) >  fields(75,1) = 'TRAC75  ',
(PID.TID 0000.0001) >  fields(76,1) = 'TRAC76  ',
(PID.TID 0000.0001) >  fields(77,1) = 'TRAC77  ',
(PID.TID 0000.0001) >  fields(78,1) = 'TRAC78  ',
(PID.TID 0000.0001) >  fields(79,1) = 'TRAC79  ',
(PID.TID 0000.0001) >  fields(80,1) = 'TRAC80  ',
(PID.TID 0000.0001) >  fields(81,1) = 'TRAC81  ',
(PID.TID 0000.0001) >  fields(82,1) = 'TRAC82  ',
(PID.TID 0000.0001) >  fields(83,1) = 'TRAC83  ',
(PID.TID 0000.0001) >  fields(84,1) = 'TRAC84  ',
(PID.TID 0000.0001) >  fields(85,1) = 'TRAC85  ',
(PID.TID 0000.0001) >  fields(86,1) = 'TRAC86  ',
(PID.TID 0000.0001) >  fields(87,1) = 'TRAC87  ',
(PID.TID 0000.0001) >  fields(88,1) = 'TRAC88  ',
(PID.TID 0000.0001) >  fields(89,1) = 'TRAC89  ',
(PID.TID 0000.0001) >  fields(90,1) = 'TRAC90  ',
(PID.TID 0000.0001) >  fields(91,1) = 'TRAC91  ',
(PID.TID 0000.0001) >  fields(92,1) = 'TRAC92  ',
(PID.TID 0000.0001) >  fields(93,1) = 'TRAC93  ',
(PID.TID 0000.0001) >  fields(94,1) = 'TRAC94  ',
(PID.TID 0000.0001) >  fields(95,1) = 'TRAC95  ',
(PID.TID 0000.0001) >  fields(96,1) = 'TRAC96  ',
(PID.TID 0000.0001) >  fields(97,1) = 'TRAC97  ',
(PID.TID 0000.0001) >  fields(98,1) = 'TRAC98  ',
(PID.TID 0000.0001) >    filename(1) = 'gud',
(PID.TID 0000.0001) >#
(PID.TID 0000.0001) > /
(PID.TID 0000.0001) >
(PID.TID 0000.0001) ># Parameter for Diagnostics of per level statistics:
(PID.TID 0000.0001) >#-----------------
(PID.TID 0000.0001) ># for each output-stream:
(PID.TID 0000.0001) >#  stat_fname(n) : prefix of the output file name (only 8.c long) for
(PID.TID 0000.0001) >#outp.stream n
(PID.TID 0000.0001) >#  stat_freq(n):< 0 : write snap-shot output every |stat_freq| seconds
(PID.TID 0000.0001) >#               > 0 : write time-average output every stat_freq seconds
(PID.TID 0000.0001) >#  stat_phase(n)    : write at time = stat_phase + multiple of |stat_freq|
(PID.TID 0000.0001) >#  stat_region(:,n) : list of "regions" (default: 1 region only=global)
(PID.TID 0000.0001) >#  stat_fields(:,n) : list of diagnostics fields (8.c) (see
(PID.TID 0000.0001) >#"available_diagnostics.log"
(PID.TID 0000.0001) >#                 file for the list of all available diag. in this particular
(PID.TID 0000.0001) >#config)
(PID.TID 0000.0001) >#-----------------
(PID.TID 0000.0001) > &DIAG_STATIS_PARMS
(PID.TID 0000.0001) > diagst_mnc=.FALSE.,
(PID.TID 0000.0001) >#     stat_freq(1:21)= 21*3600.,
(PID.TID 0000.0001) >#    stat_phase(1:21)= 21*0.,
(PID.TID 0000.0001) ># stat_fields(1,1)= 'TRAC01  '
(PID.TID 0000.0001) ># stat_fields(1,2)= 'TRAC02  '
(PID.TID 0000.0001) ># stat_fields(1,3)= 'TRAC03  '
(PID.TID 0000.0001) ># stat_fields(1,4)= 'TRAC04  '
(PID.TID 0000.0001) ># stat_fields(1,5)= 'TRAC05  '
(PID.TID 0000.0001) ># stat_fields(1,6)= 'TRAC06  '
(PID.TID 0000.0001) ># stat_fields(1,7)= 'TRAC07  '
(PID.TID 0000.0001) ># stat_fields(1,8)= 'TRAC08  '
(PID.TID 0000.0001) ># stat_fields(1,9)= 'TRAC09  '
(PID.TID 0000.0001) ># stat_fields(1,10)= 'TRAC10  '
(PID.TID 0000.0001) ># stat_fields(1,11)= 'TRAC11  '
(PID.TID 0000.0001) ># stat_fields(1,12)= 'TRAC12  '
(PID.TID 0000.0001) ># stat_fields(1,13)= 'TRAC13  '
(PID.TID 0000.0001) ># stat_fields(1,14)= 'TRAC14  '
(PID.TID 0000.0001) ># stat_fields(1,15)= 'TRAC15  '
(PID.TID 0000.0001) ># stat_fields(1,16)= 'TRAC16  '
(PID.TID 0000.0001) ># stat_fields(1,17)= 'TRAC17  '
(PID.TID 0000.0001) ># stat_fields(1,18)= 'TRAC18  '
(PID.TID 0000.0001) ># stat_fields(1,19)= 'TRAC19  '
(PID.TID 0000.0001) ># stat_fields(1,20)= 'TRAC20  '
(PID.TID 0000.0001) ># stat_fields(1,21)= 'TRAC21  '
(PID.TID 0000.0001) >#    stat_fname(1)= 'stats/DIC',
(PID.TID 0000.0001) >#    stat_fname(2)= 'stats/NH4',
(PID.TID 0000.0001) >#    stat_fname(3)= 'stats/NO2',
(PID.TID 0000.0001) >#    stat_fname(4)= 'stats/NO3',
(PID.TID 0000.0001) >#    stat_fname(5)= 'stats/PO4',
(PID.TID 0000.0001) >#    stat_fname(6)= 'stats/SiO2',
(PID.TID 0000.0001) >#    stat_fname(7)= 'stats/FeT',
(PID.TID 0000.0001) >#    stat_fname(8)= 'stats/DOC',
(PID.TID 0000.0001) >#    stat_fname(9)= 'stats/DON',
(PID.TID 0000.0001) >#    stat_fname(10)= 'stats/DOP',
(PID.TID 0000.0001) >#    stat_fname(11)= 'stats/DOFe',
(PID.TID 0000.0001) >#    stat_fname(12)= 'stats/POC',
(PID.TID 0000.0001) >#    stat_fname(13)= 'stats/PON',
(PID.TID 0000.0001) >#    stat_fname(14)= 'stats/POP',
(PID.TID 0000.0001) >#    stat_fname(15)= 'stats/POSi',
(PID.TID 0000.0001) >#    stat_fname(16)= 'stats/POFe',
(PID.TID 0000.0001) >#    stat_fname(17)= 'stats/PIC',
(PID.TID 0000.0001) >#    stat_fname(18)= 'stats/c1',
(PID.TID 0000.0001) >#    stat_fname(19)= 'stats/c2',
(PID.TID 0000.0001) >#    stat_fname(20)= 'stats/c3',
(PID.TID 0000.0001) >#    stat_fname(21)= 'stats/c4',
(PID.TID 0000.0001) > /
(PID.TID 0000.0001) 
(PID.TID 0000.0001) S/R DIAGNOSTICS_READPARMS, read namelist "diagnostics_list": start
(PID.TID 0000.0001) S/R DIAGNOSTICS_READPARMS, read namelist "diagnostics_list": OK
(PID.TID 0000.0001) S/R DIAGNOSTICS_READPARMS, read namelist "DIAG_STATIS_PARMS": start
(PID.TID 0000.0001) S/R DIAGNOSTICS_READPARMS, read namelist "DIAG_STATIS_PARMS": OK
(PID.TID 0000.0001)  DIAGNOSTICS_READPARMS: global parameter summary:
(PID.TID 0000.0001)  dumpAtLast = /* always write time-ave diags at the end */
(PID.TID 0000.0001)                   F
(PID.TID 0000.0001)     ;
(PID.TID 0000.0001)  diag_mnc =   /* write NetCDF output files */
(PID.TID 0000.0001)                   T
(PID.TID 0000.0001)     ;
(PID.TID 0000.0001)  useMissingValue = /* put MissingValue where mask = 0 */
(PID.TID 0000.0001)                   F
(PID.TID 0000.0001)     ;
(PID.TID 0000.0001)  diagCG_maxIters = /* max number of iters in diag_cg2d */
(PID.TID 0000.0001)                     300
(PID.TID 0000.0001)     ;
(PID.TID 0000.0001)  diagCG_resTarget = /* residual target for diag_cg2d */
(PID.TID 0000.0001)                 1.000000000000000E-07
(PID.TID 0000.0001)     ;
(PID.TID 0000.0001)  diagCG_pcOffDFac = /* preconditioner off-diagonal factor */
(PID.TID 0000.0001)                 9.611687812379854E-01
(PID.TID 0000.0001)     ;
(PID.TID 0000.0001) -----------------------------------------------------
(PID.TID 0000.0001)  DIAGNOSTICS_READPARMS: active diagnostics summary:
(PID.TID 0000.0001) -----------------------------------------------------
(PID.TID 0000.0001) Creating Output Stream: gud
(PID.TID 0000.0001) Output Frequency:       3600.000000 ; Phase:           0.000000
(PID.TID 0000.0001)  Averaging Freq.:       3600.000000 , Phase:           0.000000 , Cycle:   1
(PID.TID 0000.0001)  missing value: -9.990000000000E+02
(PID.TID 0000.0001)  Levels:    will be set later
(PID.TID 0000.0001)  Fields:    TRAC01   TRAC02   TRAC03   TRAC04   TRAC05   TRAC06   TRAC07   TRAC08   TRAC09   TRAC10
(PID.TID 0000.0001)  Fields:    TRAC11   TRAC12   TRAC13   TRAC14   TRAC15   TRAC16   TRAC17   TRAC18   TRAC19   TRAC20
(PID.TID 0000.0001)  Fields:    TRAC21   TRAC22   TRAC23   TRAC24   TRAC25   TRAC26   TRAC27   TRAC28   TRAC29   TRAC30
(PID.TID 0000.0001)  Fields:    TRAC31   TRAC32   TRAC33   TRAC34   TRAC35   TRAC36   TRAC37   TRAC38   TRAC39   TRAC40
(PID.TID 0000.0001)  Fields:    TRAC41   TRAC42   TRAC43   TRAC44   TRAC45   TRAC46   TRAC47   TRAC48   TRAC49   TRAC50
(PID.TID 0000.0001)  Fields:    TRAC51   TRAC52   TRAC53   TRAC54   TRAC55   TRAC56   TRAC57   TRAC58   TRAC59   TRAC60
(PID.TID 0000.0001)  Fields:    TRAC61   TRAC62   TRAC63   TRAC64   TRAC65   TRAC66   TRAC67   TRAC68   TRAC69   TRAC70
(PID.TID 0000.0001)  Fields:    TRAC71   TRAC72   TRAC73   TRAC74   TRAC75   TRAC76   TRAC77   TRAC78   TRAC79   TRAC80
(PID.TID 0000.0001)  Fields:    TRAC81   TRAC82   TRAC83   TRAC84   TRAC85   TRAC86   TRAC87   TRAC88   TRAC89   TRAC90
(PID.TID 0000.0001)  Fields:    TRAC91   TRAC92   TRAC93   TRAC94   TRAC95   TRAC96   TRAC97   TRAC98
(PID.TID 0000.0001) -----------------------------------------------------
(PID.TID 0000.0001)  DIAGNOSTICS_READPARMS: statistics diags. summary:
(PID.TID 0000.0001) -----------------------------------------------------
(PID.TID 0000.0001) 
(PID.TID 0000.0001) SET_PARMS: done
(PID.TID 0000.0001) Enter INI_VERTICAL_GRID: setInterFDr=    T ; setCenterDr=    F
(PID.TID 0000.0001) %MON XC_max                       =   3.3550000000000E+02
(PID.TID 0000.0001) %MON XC_min                       =   3.3550000000000E+02
(PID.TID 0000.0001) %MON XC_mean                      =   3.3550000000000E+02
(PID.TID 0000.0001) %MON XC_sd                        =   0.0000000000000E+00
(PID.TID 0000.0001) %MON XG_max                       =   3.3500000000000E+02
(PID.TID 0000.0001) %MON XG_min                       =   3.3500000000000E+02
(PID.TID 0000.0001) %MON XG_mean                      =   3.3500000000000E+02
(PID.TID 0000.0001) %MON XG_sd                        =   0.0000000000000E+00
(PID.TID 0000.0001) %MON DXC_max                      =   1.0603184087720E+05
(PID.TID 0000.0001) %MON DXC_min                      =   1.0603184087720E+05
(PID.TID 0000.0001) %MON DXC_mean                     =   1.0603184087720E+05
(PID.TID 0000.0001) %MON DXC_sd                       =   0.0000000000000E+00
(PID.TID 0000.0001) %MON DXF_max                      =   1.0603184087720E+05
(PID.TID 0000.0001) %MON DXF_min                      =   1.0603184087720E+05
(PID.TID 0000.0001) %MON DXF_mean                     =   1.0603184087720E+05
(PID.TID 0000.0001) %MON DXF_sd                       =   0.0000000000000E+00
(PID.TID 0000.0001) %MON DXG_max                      =   1.0573606049669E+05
(PID.TID 0000.0001) %MON DXG_min                      =   1.0573606049669E+05
(PID.TID 0000.0001) %MON DXG_mean                     =   1.0573606049669E+05
(PID.TID 0000.0001) %MON DXG_sd                       =   0.0000000000000E+00
(PID.TID 0000.0001) %MON DXV_max                      =   1.0573606049669E+05
(PID.TID 0000.0001) %MON DXV_min                      =   1.0573606049669E+05
(PID.TID 0000.0001) %MON DXV_mean                     =   1.0573606049669E+05
(PID.TID 0000.0001) %MON DXV_sd                       =   0.0000000000000E+00
(PID.TID 0000.0001) %MON YC_max                       =  -1.7500000000000E+01
(PID.TID 0000.0001) %MON YC_min                       =  -1.7500000000000E+01
(PID.TID 0000.0001) %MON YC_mean                      =  -1.7500000000000E+01
(PID.TID 0000.0001) %MON YC_sd                        =   0.0000000000000E+00
(PID.TID 0000.0001) %MON YG_max                       =  -1.8000000000000E+01
(PID.TID 0000.0001) %MON YG_min                       =  -1.8000000000000E+01
(PID.TID 0000.0001) %MON YG_mean                      =  -1.8000000000000E+01
(PID.TID 0000.0001) %MON YG_sd                        =   0.0000000000000E+00
(PID.TID 0000.0001) %MON DYC_max                      =   1.1117747335204E+05
(PID.TID 0000.0001) %MON DYC_min                      =   1.1117747335204E+05
(PID.TID 0000.0001) %MON DYC_mean                     =   1.1117747335204E+05
(PID.TID 0000.0001) %MON DYC_sd                       =   0.0000000000000E+00
(PID.TID 0000.0001) %MON DYF_max                      =   1.1117747335204E+05
(PID.TID 0000.0001) %MON DYF_min                      =   1.1117747335204E+05
(PID.TID 0000.0001) %MON DYF_mean                     =   1.1117747335204E+05
(PID.TID 0000.0001) %MON DYF_sd                       =   0.0000000000000E+00
(PID.TID 0000.0001) %MON DYG_max                      =   1.1117747335204E+05
(PID.TID 0000.0001) %MON DYG_min                      =   1.1117747335204E+05
(PID.TID 0000.0001) %MON DYG_mean                     =   1.1117747335204E+05
(PID.TID 0000.0001) %MON DYG_sd                       =   0.0000000000000E+00
(PID.TID 0000.0001) %MON DYU_max                      =   1.1117747335204E+05
(PID.TID 0000.0001) %MON DYU_min                      =   1.1117747335204E+05
(PID.TID 0000.0001) %MON DYU_mean                     =   1.1117747335204E+05
(PID.TID 0000.0001) %MON DYU_sd                       =   0.0000000000000E+00
(PID.TID 0000.0001) %MON RA_max                       =   1.1788202541770E+10
(PID.TID 0000.0001) %MON RA_min                       =   1.1788202541770E+10
(PID.TID 0000.0001) %MON RA_mean                      =   1.1788202541770E+10
(PID.TID 0000.0001) %MON RA_sd                        =   0.0000000000000E+00
(PID.TID 0000.0001) %MON RAW_max                      =   1.1788202541770E+10
(PID.TID 0000.0001) %MON RAW_min                      =   1.1788202541770E+10
(PID.TID 0000.0001) %MON RAW_mean                     =   1.1788202541770E+10
(PID.TID 0000.0001) %MON RAW_sd                       =   0.0000000000000E+00
(PID.TID 0000.0001) %MON RAS_max                      =   1.1755318843774E+10
(PID.TID 0000.0001) %MON RAS_min                      =   1.1755318843774E+10
(PID.TID 0000.0001) %MON RAS_mean                     =   1.1755318843774E+10
(PID.TID 0000.0001) %MON RAS_sd                       =   0.0000000000000E+00
(PID.TID 0000.0001) %MON RAZ_max                      =   1.1755318843774E+10
(PID.TID 0000.0001) %MON RAZ_min                      =   1.1755318843774E+10
(PID.TID 0000.0001) %MON RAZ_mean                     =   1.1755318843774E+10
(PID.TID 0000.0001) %MON RAZ_sd                       =   0.0000000000000E+00
(PID.TID 0000.0001) %MON AngleCS_max                  =   1.0000000000000E+00
(PID.TID 0000.0001) %MON AngleCS_min                  =   1.0000000000000E+00
(PID.TID 0000.0001) %MON AngleCS_mean                 =   1.0000000000000E+00
(PID.TID 0000.0001) %MON AngleCS_sd                   =   0.0000000000000E+00
(PID.TID 0000.0001) %MON AngleSN_max                  =   0.0000000000000E+00
(PID.TID 0000.0001) %MON AngleSN_min                  =   0.0000000000000E+00
(PID.TID 0000.0001) %MON AngleSN_mean                 =   0.0000000000000E+00
(PID.TID 0000.0001) %MON AngleSN_sd                   =   0.0000000000000E+00
(PID.TID 0000.0001)  MDS_READ_FIELD: opening global file: ../input/input/bathyneg.bin
(PID.TID 0000.0001) // =======================================================
(PID.TID 0000.0001) // Field Model R_low (ini_masks_etc)
(PID.TID 0000.0001) // CMIN =         -3.495000000000000E+03
(PID.TID 0000.0001) // CMAX =         -3.495000000000000E+03
(PID.TID 0000.0001) // CINT =          0.000000000000000E+00
(PID.TID 0000.0001) // SYMBOLS (CMIN->CMAX): -abcdefghijklmnopqrstuvwxyz+
(PID.TID 0000.0001) //                  0.0: .
(PID.TID 0000.0001) // RANGE I (Lo:Hi:Step):(    -1:     3:     1)
(PID.TID 0000.0001) // RANGE J (Lo:Hi:Step):(     3:    -1:    -1)
(PID.TID 0000.0001) // RANGE K (Lo:Hi:Step):(   1:   1:   1)
(PID.TID 0000.0001) // =======================================================
(PID.TID 0000.0001) // =======================================================
(PID.TID 0000.0001) // END OF FIELD                                          =
(PID.TID 0000.0001) // =======================================================
(PID.TID 0000.0001) 
(PID.TID 0000.0001) // =======================================================
(PID.TID 0000.0001) // Field Model Ro_surf (ini_masks_etc)
(PID.TID 0000.0001) // CMIN =          1.000000000000000E+32
(PID.TID 0000.0001) // CMAX =         -1.000000000000000E+32
(PID.TID 0000.0001) // CINT =          0.000000000000000E+00
(PID.TID 0000.0001) // SYMBOLS (CMIN->CMAX): -abcdefghijklmnopqrstuvwxyz+
(PID.TID 0000.0001) //                  0.0: .
(PID.TID 0000.0001) // RANGE I (Lo:Hi:Step):(    -1:     3:     1)
(PID.TID 0000.0001) // RANGE J (Lo:Hi:Step):(     3:    -1:    -1)
(PID.TID 0000.0001) // RANGE K (Lo:Hi:Step):(   1:   1:   1)
(PID.TID 0000.0001) // =======================================================
(PID.TID 0000.0001) // =======================================================
(PID.TID 0000.0001) // END OF FIELD                                          =
(PID.TID 0000.0001) // =======================================================
(PID.TID 0000.0001) 
(PID.TID 0000.0001) // =======================================================
(PID.TID 0000.0001) // Field hFacC at iteration          0
(PID.TID 0000.0001) // CMIN =          1.000000000000000E+00
(PID.TID 0000.0001) // CMAX =          1.000000000000000E+00
(PID.TID 0000.0001) // CINT =          0.000000000000000E+00
(PID.TID 0000.0001) // SYMBOLS (CMIN->CMAX): -abcdefghijklmnopqrstuvwxyz+
(PID.TID 0000.0001) //                  0.0: .
(PID.TID 0000.0001) // RANGE I (Lo:Hi:Step):(    -1:     3:     1)
(PID.TID 0000.0001) // RANGE J (Lo:Hi:Step):(     3:    -1:    -1)
(PID.TID 0000.0001) // RANGE K (Lo:Hi:Step):(   1:   1:   1)
(PID.TID 0000.0001) // =======================================================
(PID.TID 0000.0001) // =======================================================
(PID.TID 0000.0001) // END OF FIELD                                          =
(PID.TID 0000.0001) // =======================================================
(PID.TID 0000.0001) 
(PID.TID 0000.0001) // =======================================================
(PID.TID 0000.0001) // Field hFacW at iteration          0
(PID.TID 0000.0001) // CMIN =          1.000000000000000E+00
(PID.TID 0000.0001) // CMAX =          1.000000000000000E+00
(PID.TID 0000.0001) // CINT =          0.000000000000000E+00
(PID.TID 0000.0001) // SYMBOLS (CMIN->CMAX): -abcdefghijklmnopqrstuvwxyz+
(PID.TID 0000.0001) //                  0.0: .
(PID.TID 0000.0001) // RANGE I (Lo:Hi:Step):(    -1:     3:     1)
(PID.TID 0000.0001) // RANGE J (Lo:Hi:Step):(     3:    -1:    -1)
(PID.TID 0000.0001) // RANGE K (Lo:Hi:Step):(   1:   1:   1)
(PID.TID 0000.0001) // =======================================================
(PID.TID 0000.0001) // =======================================================
(PID.TID 0000.0001) // END OF FIELD                                          =
(PID.TID 0000.0001) // =======================================================
(PID.TID 0000.0001) 
(PID.TID 0000.0001) // =======================================================
(PID.TID 0000.0001) // Field hFacS at iteration          0
(PID.TID 0000.0001) // CMIN =          1.000000000000000E+00
(PID.TID 0000.0001) // CMAX =          1.000000000000000E+00
(PID.TID 0000.0001) // CINT =          0.000000000000000E+00
(PID.TID 0000.0001) // SYMBOLS (CMIN->CMAX): -abcdefghijklmnopqrstuvwxyz+
(PID.TID 0000.0001) //                  0.0: .
(PID.TID 0000.0001) // RANGE I (Lo:Hi:Step):(    -1:     3:     1)
(PID.TID 0000.0001) // RANGE J (Lo:Hi:Step):(     3:    -1:    -1)
(PID.TID 0000.0001) // RANGE K (Lo:Hi:Step):(   1:   1:   1)
(PID.TID 0000.0001) // =======================================================
(PID.TID 0000.0001) // =======================================================
(PID.TID 0000.0001) // END OF FIELD                                          =
(PID.TID 0000.0001) // =======================================================
(PID.TID 0000.0001) 
(PID.TID 0000.0001) 
(PID.TID 0000.0001) // =======================================================
(PID.TID 0000.0001) // Calendar configuration >>> START <<<
(PID.TID 0000.0001) // =======================================================
(PID.TID 0000.0001) 
(PID.TID 0000.0001) modelstart = /* Start time of the model integration [s] */
(PID.TID 0000.0001)                 0.000000000000000E+00
(PID.TID 0000.0001)     ;
(PID.TID 0000.0001) modelend  = /* End time of the model integration [s] */
(PID.TID 0000.0001)                 1.440000000000000E+04
(PID.TID 0000.0001)     ;
(PID.TID 0000.0001) modelStep = /* Time interval for a model forward step [s] */
(PID.TID 0000.0001)                 3.600000000000000E+03
(PID.TID 0000.0001)     ;
(PID.TID 0000.0001) usingGregorianCalendar= /* Calendar Type: Gregorian Calendar */
(PID.TID 0000.0001)                   F
(PID.TID 0000.0001)     ;
(PID.TID 0000.0001) usingJulianCalendar = /* Calendar Type: Julian Calendar */
(PID.TID 0000.0001)                   F
(PID.TID 0000.0001)     ;
(PID.TID 0000.0001) usingNoLeapYearCal  = /* Calendar Type: without Leap Year */
(PID.TID 0000.0001)                   F
(PID.TID 0000.0001)     ;
(PID.TID 0000.0001) usingModelCalendar  = /* Calendar Type: Model Calendar */
(PID.TID 0000.0001)                   T
(PID.TID 0000.0001)     ;
(PID.TID 0000.0001) modelStartDate YYYYMMDD = /* Model start date YYYY-MM-DD */
(PID.TID 0000.0001)                19920101
(PID.TID 0000.0001)     ;
(PID.TID 0000.0001)   modelStartDate HHMMSS = /* Model start date HH-MM-SS  */
(PID.TID 0000.0001)                       0
(PID.TID 0000.0001)     ;
(PID.TID 0000.0001) modelEndDate   YYYYMMDD = /* Model end date YYYY-MM-DD */
(PID.TID 0000.0001)                19920101
(PID.TID 0000.0001)     ;
(PID.TID 0000.0001)   modelEndDate   HHMMSS = /* Model end date HH-MM-SS  */
(PID.TID 0000.0001)                   40000
(PID.TID 0000.0001)     ;
(PID.TID 0000.0001) intyears = /* Number of calendar years affected by the integration */
(PID.TID 0000.0001)                       1
(PID.TID 0000.0001)     ;
(PID.TID 0000.0001) intmonths= /* Number of calendar months affected by the integration */
(PID.TID 0000.0001)                       1
(PID.TID 0000.0001)     ;
(PID.TID 0000.0001) intdays = /* Number of calendar days affected by the integration */
(PID.TID 0000.0001)                       1
(PID.TID 0000.0001)     ;
(PID.TID 0000.0001) modelIter0 = /* Base timestep number  */
(PID.TID 0000.0001)                       0
(PID.TID 0000.0001)     ;
(PID.TID 0000.0001) modelIterEnd = /* Final timestep number  */
(PID.TID 0000.0001)                       4
(PID.TID 0000.0001)     ;
(PID.TID 0000.0001) modelIntSteps= /* Number of model timesteps  */
(PID.TID 0000.0001)                       4
(PID.TID 0000.0001)     ;
(PID.TID 0000.0001) 
(PID.TID 0000.0001) // =======================================================
(PID.TID 0000.0001) // Calendar configuration  >>> END <<<
(PID.TID 0000.0001) // =======================================================
(PID.TID 0000.0001) 
(PID.TID 0000.0001) GAD_INIT_FIXED: GAD_OlMinSize=  2  0  1
(PID.TID 0000.0001) 
(PID.TID 0000.0001) // ===================================
(PID.TID 0000.0001) // GAD parameters :
(PID.TID 0000.0001) // ===================================
(PID.TID 0000.0001) tempAdvScheme =   /* Temp. Horiz.Advection scheme selector */
(PID.TID 0000.0001)                       3
(PID.TID 0000.0001)     ;
(PID.TID 0000.0001) tempVertAdvScheme =   /* Temp. Vert. Advection scheme selector */
(PID.TID 0000.0001)                       3
(PID.TID 0000.0001)     ;
(PID.TID 0000.0001) tempMultiDimAdvec =   /* use Muti-Dim Advec method for Temp */
(PID.TID 0000.0001)                   F
(PID.TID 0000.0001)     ;
(PID.TID 0000.0001) tempSOM_Advection = /* use 2nd Order Moment Advection for Temp */
(PID.TID 0000.0001)                   F
(PID.TID 0000.0001)     ;
(PID.TID 0000.0001) AdamsBashforthGt = /* apply Adams-Bashforth extrapolation on Gt */
(PID.TID 0000.0001)                   T
(PID.TID 0000.0001)     ;
(PID.TID 0000.0001) AdamsBashforth_T = /* apply Adams-Bashforth extrapolation on Temp */
(PID.TID 0000.0001)                   F
(PID.TID 0000.0001)     ;
(PID.TID 0000.0001) saltAdvScheme =   /* Salt. Horiz.advection scheme selector */
(PID.TID 0000.0001)                       3
(PID.TID 0000.0001)     ;
(PID.TID 0000.0001) saltVertAdvScheme =   /* Salt. Vert. Advection scheme selector */
(PID.TID 0000.0001)                       3
(PID.TID 0000.0001)     ;
(PID.TID 0000.0001) saltMultiDimAdvec =   /* use Muti-Dim Advec method for Salt */
(PID.TID 0000.0001)                   F
(PID.TID 0000.0001)     ;
(PID.TID 0000.0001) saltSOM_Advection = /* use 2nd Order Moment Advection for Salt */
(PID.TID 0000.0001)                   F
(PID.TID 0000.0001)     ;
(PID.TID 0000.0001) AdamsBashforthGs = /* apply Adams-Bashforth extrapolation on Gs */
(PID.TID 0000.0001)                   F
(PID.TID 0000.0001)     ;
(PID.TID 0000.0001) AdamsBashforth_S = /* apply Adams-Bashforth extrapolation on Salt */
(PID.TID 0000.0001)                   F
(PID.TID 0000.0001)     ;
(PID.TID 0000.0001) // ===================================
(PID.TID 0000.0001) 
(PID.TID 0000.0001) // =======================================================
(PID.TID 0000.0001) // External forcing (EXF) configuration >>> START <<<
(PID.TID 0000.0001) // =======================================================
(PID.TID 0000.0001) 
(PID.TID 0000.0001)  EXF general parameters:
(PID.TID 0000.0001) 
(PID.TID 0000.0001) exf_iprec = /* exf file precision */
(PID.TID 0000.0001)                      32
(PID.TID 0000.0001)     ;
(PID.TID 0000.0001) useExfYearlyFields = /* add extension _YEAR to input file names */
(PID.TID 0000.0001)                   T
(PID.TID 0000.0001)     ;
(PID.TID 0000.0001) twoDigitYear = /* use 2-digit year extension */
(PID.TID 0000.0001)                   T
(PID.TID 0000.0001)     ;
(PID.TID 0000.0001) useExfCheckRange = /* check for fields range */
(PID.TID 0000.0001)                   F
(PID.TID 0000.0001)     ;
(PID.TID 0000.0001) exf_debugLev = /* select EXF-debug printing level */
(PID.TID 0000.0001)                       2
(PID.TID 0000.0001)     ;
(PID.TID 0000.0001) exf_monFreq  = /* EXF monitor frequency [ s ] */
(PID.TID 0000.0001)                 1.000000000000000E+00
(PID.TID 0000.0001)     ;
(PID.TID 0000.0001) repeatPeriod = /* period for cycling forcing dataset [ s ] */
(PID.TID 0000.0001)                 0.000000000000000E+00
(PID.TID 0000.0001)     ;
(PID.TID 0000.0001) climTempFreeze= /* Minimum climatological temperature [deg.C] */
(PID.TID 0000.0001)                -1.900000000000000E+00
(PID.TID 0000.0001)     ;
(PID.TID 0000.0001) windStressMax = /* Maximum absolute windstress [ Pa ] */
(PID.TID 0000.0001)                 2.000000000000000E+00
(PID.TID 0000.0001)     ;
(PID.TID 0000.0001) stressIsOnCgrid = /* set u,v_stress on Arakawa C-grid */
(PID.TID 0000.0001)                   F
(PID.TID 0000.0001)     ;
(PID.TID 0000.0001) rotateStressOnAgrid = /* rotate u,v_stress on Arakawa A-grid */
(PID.TID 0000.0001)                   F
(PID.TID 0000.0001)     ;
(PID.TID 0000.0001) cen2kel = /* conversion of deg. Centigrade to Kelvin [K] */
(PID.TID 0000.0001)                 2.731500000000000E+02
(PID.TID 0000.0001)     ;
(PID.TID 0000.0001) gravity_mks= /* gravitational acceleration [m/s^2] */
(PID.TID 0000.0001)                 9.810000000000000E+00
(PID.TID 0000.0001)     ;
(PID.TID 0000.0001) atmrho =  /* mean atmospheric density [kg/m^3] */
(PID.TID 0000.0001)                 1.200000000000000E+00
(PID.TID 0000.0001)     ;
(PID.TID 0000.0001) atmcp =  /* mean atmospheric specific heat [J/kg/K] */
(PID.TID 0000.0001)                 1.005000000000000E+03
(PID.TID 0000.0001)     ;
(PID.TID 0000.0001) flamb =  /* latent heat of evaporation [J/kg] */
(PID.TID 0000.0001)                 2.500000000000000E+06
(PID.TID 0000.0001)     ;
(PID.TID 0000.0001) flami =  /* latent heat of pure-ice melting [J/kg] */
(PID.TID 0000.0001)                 3.340000000000000E+05
(PID.TID 0000.0001)     ;
(PID.TID 0000.0001) cvapor_fac = /* const. for Saturation calculation [?] */
(PID.TID 0000.0001)                 6.403800000000000E+05
(PID.TID 0000.0001)     ;
(PID.TID 0000.0001) cvapor_exp = /* const. for Saturation calculation [?] */
(PID.TID 0000.0001)                 5.107400000000000E+03
(PID.TID 0000.0001)     ;
(PID.TID 0000.0001) cvapor_fac_ice= /* const. for Saturation calculation [?] */
(PID.TID 0000.0001)                 1.163780000000000E+07
(PID.TID 0000.0001)     ;
(PID.TID 0000.0001) cvapor_exp_ice= /* const. for Saturation calculation [?] */
(PID.TID 0000.0001)                 5.897800000000000E+03
(PID.TID 0000.0001)     ;
(PID.TID 0000.0001) humid_fac = /* humidity coef. in virtual temp. [(kg/kg)^-1] */
(PID.TID 0000.0001)                 6.060000000000000E-01
(PID.TID 0000.0001)     ;
(PID.TID 0000.0001) gamma_blk = /* adiabatic lapse rate [?] */
(PID.TID 0000.0001)                 1.000000000000000E-02
(PID.TID 0000.0001)     ;
(PID.TID 0000.0001) saltsat = /* reduction of Qsat over salty water [-] */
(PID.TID 0000.0001)                 9.800000000000000E-01
(PID.TID 0000.0001)     ;
(PID.TID 0000.0001) noNegativeEvap = /* prevent negative Evaporation */
(PID.TID 0000.0001)                   F
(PID.TID 0000.0001)     ;
(PID.TID 0000.0001) sstExtrapol = /* extrapolation coeff from lev. 1 & 2 to surf [-] */
(PID.TID 0000.0001)                 0.000000000000000E+00
(PID.TID 0000.0001)     ;
(PID.TID 0000.0001) cDrag_1 = /* coef used in drag calculation [?] */
(PID.TID 0000.0001)                 2.700000000000000E-03
(PID.TID 0000.0001)     ;
(PID.TID 0000.0001) cDrag_2 = /* coef used in drag calculation [?] */
(PID.TID 0000.0001)                 1.420000000000000E-04
(PID.TID 0000.0001)     ;
(PID.TID 0000.0001) cDrag_3 = /* coef used in drag calculation [?] */
(PID.TID 0000.0001)                 7.640000000000000E-05
(PID.TID 0000.0001)     ;
(PID.TID 0000.0001) cStanton_1 = /* coef used in Stanton number calculation [?] */
(PID.TID 0000.0001)                 3.270000000000000E-02
(PID.TID 0000.0001)     ;
(PID.TID 0000.0001) cStanton_2 = /* coef used in Stanton number calculation [?] */
(PID.TID 0000.0001)                 1.800000000000000E-02
(PID.TID 0000.0001)     ;
(PID.TID 0000.0001) cDalton = /* coef used in Dalton number calculation [?] */
(PID.TID 0000.0001)                 3.460000000000000E-02
(PID.TID 0000.0001)     ;
(PID.TID 0000.0001) exf_scal_BulkCdn= /* Drag coefficient scaling factor [-] */
(PID.TID 0000.0001)                 1.000000000000000E+00
(PID.TID 0000.0001)     ;
(PID.TID 0000.0001) zolmin = /* minimum stability parameter [?] */
(PID.TID 0000.0001)                -1.000000000000000E+02
(PID.TID 0000.0001)     ;
(PID.TID 0000.0001) psim_fac = /* coef used in turbulent fluxes calculation [-] */
(PID.TID 0000.0001)                 5.000000000000000E+00
(PID.TID 0000.0001)     ;
(PID.TID 0000.0001) zref =  /* reference height [ m ] */
(PID.TID 0000.0001)                 1.000000000000000E+01
(PID.TID 0000.0001)     ;
(PID.TID 0000.0001) hu =  /* height of mean wind [ m ] */
(PID.TID 0000.0001)                 1.000000000000000E+01
(PID.TID 0000.0001)     ;
(PID.TID 0000.0001) ht =  /* height of mean temperature [ m ] */
(PID.TID 0000.0001)                 2.000000000000000E+00
(PID.TID 0000.0001)     ;
(PID.TID 0000.0001) hq =  /* height of mean spec.humidity [ m ] */
(PID.TID 0000.0001)                 2.000000000000000E+00
(PID.TID 0000.0001)     ;
(PID.TID 0000.0001) uMin = /* minimum wind speed [m/s] */
(PID.TID 0000.0001)                 5.000000000000000E-01
(PID.TID 0000.0001)     ;
(PID.TID 0000.0001) useStabilityFct_overIce= /* transfert Coeffs over sea-ice depend on stability */
(PID.TID 0000.0001)                   F
(PID.TID 0000.0001)     ;
(PID.TID 0000.0001) exf_iceCd = /* drag coefficient over sea-ice (fixed) [-] */
(PID.TID 0000.0001)                 1.630000000000000E-03
(PID.TID 0000.0001)     ;
(PID.TID 0000.0001) exf_iceCe = /* transfert coeff. over sea-ice, for Evap (fixed) [-] */
(PID.TID 0000.0001)                 1.630000000000000E-03
(PID.TID 0000.0001)     ;
(PID.TID 0000.0001) exf_iceCh = /* transfert coeff. over sea-ice, Sens.Heat.(fixed)[-] */
(PID.TID 0000.0001)                 1.630000000000000E-03
(PID.TID 0000.0001)     ;
(PID.TID 0000.0001) exf_albedo =  /* Sea-water albedo [-] */
(PID.TID 0000.0001)                 1.500000000000000E-01
(PID.TID 0000.0001)     ;
(PID.TID 0000.0001) useExfZenAlbedo = /* Sea-water albedo varies with zenith angle */
(PID.TID 0000.0001)                   F
(PID.TID 0000.0001)     ;
(PID.TID 0000.0001) select_ZenAlbedo = /* Sea-water albedo computation method */
(PID.TID 0000.0001)                       0
(PID.TID 0000.0001)     ;
(PID.TID 0000.0001) useExfZenIncoming = /* compute incoming solar radiation */
(PID.TID 0000.0001)                   F
(PID.TID 0000.0001)     ;
(PID.TID 0000.0001) ocean_emissivity = /* longwave ocean-surface emissivity [-] */
(PID.TID 0000.0001)                 9.700176366843034E-01
(PID.TID 0000.0001)     ;
(PID.TID 0000.0001) ice_emissivity = /* longwave seaice emissivity [-] */
(PID.TID 0000.0001)                 9.500000000000000E-01
(PID.TID 0000.0001)     ;
(PID.TID 0000.0001) snow_emissivity = /* longwave snow  emissivity [-] */
(PID.TID 0000.0001)                 9.500000000000000E-01
(PID.TID 0000.0001)     ;
(PID.TID 0000.0001) 
(PID.TID 0000.0001)  EXF main CPP flags:
(PID.TID 0000.0001) 
(PID.TID 0000.0001) // USE_EXF_INTERPOLATION:          NOT defined
(PID.TID 0000.0001) // ALLOW_ATM_TEMP:                     defined
(PID.TID 0000.0001) // ALLOW_ATM_WIND (useAtmWind):        defined
(PID.TID 0000.0001) // ALLOW_DOWNWARD_RADIATION:           defined
(PID.TID 0000.0001) // ALLOW_BULKFORMULAE:                 defined
(PID.TID 0000.0001) 
(PID.TID 0000.0001)    Net shortwave flux forcing starts at                0.
(PID.TID 0000.0001)    Net shortwave flux forcing period is                0.
(PID.TID 0000.0001)    Net shortwave flux forcing is read from file:
(PID.TID 0000.0001)    >>    <<
(PID.TID 0000.0001) 
(PID.TID 0000.0001)    Zonal wind forcing starts at                          0.
(PID.TID 0000.0001)    Zonal wind forcing period is                          0.
(PID.TID 0000.0001)    Zonal wind forcing is read from file:
(PID.TID 0000.0001)    >>    <<
(PID.TID 0000.0001) 
(PID.TID 0000.0001)    Meridional wind forcing starts at                     0.
(PID.TID 0000.0001)    Meridional wind forcing period is                     0.
(PID.TID 0000.0001)    Meridional wind forcing is read from file:
(PID.TID 0000.0001)    >>    <<
(PID.TID 0000.0001) 
(PID.TID 0000.0001)    Atmospheric temperature starts at                     0.
(PID.TID 0000.0001)    Atmospheric temperature period is                     0.
(PID.TID 0000.0001)    Atmospheric temperature is read from file:
(PID.TID 0000.0001)    >>    <<
(PID.TID 0000.0001) 
(PID.TID 0000.0001)    Atmospheric specific humidity starts at               0.
(PID.TID 0000.0001)    Atmospheric specific humidity period is               0.
(PID.TID 0000.0001)    Atmospheric specific humidity is read from file:
(PID.TID 0000.0001)    >>    <<
(PID.TID 0000.0001) 
(PID.TID 0000.0001)    Net longwave flux forcing starts at                 0.
(PID.TID 0000.0001)    Net longwave flux forcing period is                 0.
(PID.TID 0000.0001)    Net longwave flux forcing is read from file:
(PID.TID 0000.0001)    >>    <<
(PID.TID 0000.0001) 
(PID.TID 0000.0001)    Precipitation data set starts at                      0.
(PID.TID 0000.0001)    Precipitation data period is                          0.
(PID.TID 0000.0001)    Precipitation data is read from file:
(PID.TID 0000.0001)    >>    <<
(PID.TID 0000.0001) 
(PID.TID 0000.0001) // EXF_READ_EVAP:                  NOT defined
(PID.TID 0000.0001) 
(PID.TID 0000.0001) // ALLOW_RUNOFF:                       defined
(PID.TID 0000.0001)    Runoff starts at               0.
(PID.TID 0000.0001)    Runoff period is               0.
(PID.TID 0000.0001)    Runoff is read from file:
(PID.TID 0000.0001)    >>    <<
(PID.TID 0000.0001) // ALLOW_RUNOFTEMP:                NOT defined
(PID.TID 0000.0001) 
(PID.TID 0000.0001)    Downward shortwave flux forcing starts at                0.
(PID.TID 0000.0001)    Downward shortwave flux forcing period is                0.
(PID.TID 0000.0001)    Downward shortwave flux forcing is read from file:
(PID.TID 0000.0001)    >>    <<
(PID.TID 0000.0001) 
(PID.TID 0000.0001)    Downward longwave flux forcing starts at                 0.
(PID.TID 0000.0001)    Downward longwave flux forcing period is                 0.
(PID.TID 0000.0001)    Downward longwave flux forcing is read from file:
(PID.TID 0000.0001)    >>    <<
(PID.TID 0000.0001) 
(PID.TID 0000.0001)    Atmospheric pressure forcing starts at                0.
(PID.TID 0000.0001)    Atmospheric pressure forcing period is                0.
(PID.TID 0000.0001)    Atmospheric pressureforcing is read from file:
(PID.TID 0000.0001)    >>    <<
(PID.TID 0000.0001) 
(PID.TID 0000.0001) // =======================================================
(PID.TID 0000.0001) // External forcing (EXF) climatology configuration :
(PID.TID 0000.0001) // =======================================================
(PID.TID 0000.0001) 
(PID.TID 0000.0001) // ALLOW_CLIMSST_RELAXATION:       NOT defined
(PID.TID 0000.0001) // ALLOW_CLIMSSS_RELAXATION:       NOT defined
(PID.TID 0000.0001) 
(PID.TID 0000.0001) // =======================================================
(PID.TID 0000.0001) // External forcing (EXF) configuration  >>> END <<<
(PID.TID 0000.0001) // =======================================================
(PID.TID 0000.0001) 
(PID.TID 0000.0001) GUD_INIT_FIXED:
(PID.TID 0000.0001) GUD_INIT_FIXED: wavebands:
(PID.TID 0000.0001) GUD_INIT_FIXED:  idx       low   rep      high    width
(PID.TID 0000.0001) GUD_INIT_FIXED:    1   400.000  400.   412.500   12.500
(PID.TID 0000.0001) GUD_INIT_FIXED:    2   412.500  425.   437.500   25.000
(PID.TID 0000.0001) GUD_INIT_FIXED:    3   437.500  450.   462.500   25.000
(PID.TID 0000.0001) GUD_INIT_FIXED:    4   462.500  475.   487.500   25.000
(PID.TID 0000.0001) GUD_INIT_FIXED:    5   487.500  500.   512.500   25.000
(PID.TID 0000.0001) GUD_INIT_FIXED:    6   512.500  525.   537.500   25.000
(PID.TID 0000.0001) GUD_INIT_FIXED:    7   537.500  550.   562.500   25.000
(PID.TID 0000.0001) GUD_INIT_FIXED:    8   562.500  575.   587.500   25.000
(PID.TID 0000.0001) GUD_INIT_FIXED:    9   587.500  600.   612.500   25.000
(PID.TID 0000.0001) GUD_INIT_FIXED:   10   612.500  625.   637.500   25.000
(PID.TID 0000.0001) GUD_INIT_FIXED:   11   637.500  650.   662.500   25.000
(PID.TID 0000.0001) GUD_INIT_FIXED:   12   662.500  675.   687.500   25.000
(PID.TID 0000.0001) GUD_INIT_FIXED:   13   687.500  700.   700.000   12.500
(PID.TID 0000.0001) GUD_INIT_FIXED:
(PID.TID 0000.0001) GUD_INIT_FIXED: water spectra:
(PID.TID 0000.0001) GUD_INIT_FIXED:  lam aw             bw
(PID.TID 0000.0001) GUD_INIT_FIXED: 400.         0.0063    0.0076
(PID.TID 0000.0001) GUD_INIT_FIXED: 425.         0.0051    0.0058
(PID.TID 0000.0001) GUD_INIT_FIXED: 450.         0.0083    0.0045
(PID.TID 0000.0001) GUD_INIT_FIXED: 475.         0.0119    0.0036
(PID.TID 0000.0001) GUD_INIT_FIXED: 500.         0.0215    0.0029
(PID.TID 0000.0001) GUD_INIT_FIXED: 525.         0.0407    0.0023
(PID.TID 0000.0001) GUD_INIT_FIXED: 550.         0.0550    0.0019
(PID.TID 0000.0001) GUD_INIT_FIXED: 575.         0.0849    0.0016
(PID.TID 0000.0001) GUD_INIT_FIXED: 600.         0.1995    0.0014
(PID.TID 0000.0001) GUD_INIT_FIXED: 625.         0.2850    0.0012
(PID.TID 0000.0001) GUD_INIT_FIXED: 650.         0.3512    0.0009
(PID.TID 0000.0001) GUD_INIT_FIXED: 675.         0.4559    0.0007
(PID.TID 0000.0001) GUD_INIT_FIXED: 700.         0.6433    0.0007
(PID.TID 0000.0001) GUD_INIT_FIXED:
(PID.TID 0000.0001) GUD_INIT_FIXED: phyto spectra:
(PID.TID 0000.0001) GUD_INIT_FIXED: type    1
(PID.TID 0000.0001) GUD_INIT_FIXED:  lam ap        ap_ps     bp        bbp
(PID.TID 0000.0001) GUD_INIT_FIXED: 400.    0.0213    0.0213    0.0070         0.000003728
(PID.TID 0000.0001) GUD_INIT_FIXED: 425.    0.0251    0.0251    0.0067         0.000003728
(PID.TID 0000.0001) GUD_INIT_FIXED: 450.    0.0261    0.0261    0.0067         0.000003728
(PID.TID 0000.0001) GUD_INIT_FIXED: 475.    0.0216    0.0216    0.0074         0.000003728
(PID.TID 0000.0001) GUD_INIT_FIXED: 500.    0.0159    0.0159    0.0083         0.000003728
(PID.TID 0000.0001) GUD_INIT_FIXED: 525.    0.0100    0.0100    0.0091         0.000003728
(PID.TID 0000.0001) GUD_INIT_FIXED: 550.    0.0063    0.0063    0.0094         0.000003728
(PID.TID 0000.0001) GUD_INIT_FIXED: 575.    0.0044    0.0044    0.0094         0.000003728
(PID.TID 0000.0001) GUD_INIT_FIXED: 600.    0.0041    0.0041    0.0091         0.000003728
(PID.TID 0000.0001) GUD_INIT_FIXED: 625.    0.0051    0.0051    0.0087         0.000003728
(PID.TID 0000.0001) GUD_INIT_FIXED: 650.    0.0060    0.0060    0.0082         0.000003728
(PID.TID 0000.0001) GUD_INIT_FIXED: 675.    0.0131    0.0131    0.0076         0.000003728
(PID.TID 0000.0001) GUD_INIT_FIXED: 700.    0.0052    0.0052    0.0088         0.000003728
(PID.TID 0000.0001) GUD_INIT_FIXED:
(PID.TID 0000.0001) GUD_INIT_FIXED: type    2
(PID.TID 0000.0001) GUD_INIT_FIXED:  lam ap        ap_ps     bp        bbp
(PID.TID 0000.0001) GUD_INIT_FIXED: 400.    0.0474    0.0274    0.0077         0.000013127
(PID.TID 0000.0001) GUD_INIT_FIXED: 425.    0.0576    0.0283    0.0071         0.000013127
(PID.TID 0000.0001) GUD_INIT_FIXED: 450.    0.0543    0.0160    0.0068         0.000013127
(PID.TID 0000.0001) GUD_INIT_FIXED: 475.    0.0444    0.0062    0.0062         0.000013127
(PID.TID 0000.0001) GUD_INIT_FIXED: 500.    0.0416    0.0138    0.0058         0.000013127
(PID.TID 0000.0001) GUD_INIT_FIXED: 525.    0.0270    0.0224    0.0053         0.000013127
(PID.TID 0000.0001) GUD_INIT_FIXED: 550.    0.0270    0.0269    0.0049         0.000013127
(PID.TID 0000.0001) GUD_INIT_FIXED: 575.    0.0144    0.0144    0.0047         0.000013127
(PID.TID 0000.0001) GUD_INIT_FIXED: 600.    0.0076    0.0076    0.0042         0.000013127
(PID.TID 0000.0001) GUD_INIT_FIXED: 625.    0.0089    0.0089    0.0038         0.000013127
(PID.TID 0000.0001) GUD_INIT_FIXED: 650.    0.0098    0.0098    0.0034         0.000013127
(PID.TID 0000.0001) GUD_INIT_FIXED: 675.    0.0200    0.0200    0.0032         0.000013127
(PID.TID 0000.0001) GUD_INIT_FIXED: 700.    0.0100    0.0100    0.0033         0.000013127
(PID.TID 0000.0001) GUD_INIT_FIXED:
(PID.TID 0000.0001) GUD_INIT_FIXED: type    3
(PID.TID 0000.0001) GUD_INIT_FIXED:  lam ap        ap_ps     bp        bbp
(PID.TID 0000.0001) GUD_INIT_FIXED: 400.    0.0273    0.0174    0.0035         0.000014685
(PID.TID 0000.0001) GUD_INIT_FIXED: 425.    0.0399    0.0229    0.0032         0.000014685
(PID.TID 0000.0001) GUD_INIT_FIXED: 450.    0.0453    0.0172    0.0034         0.000014685
(PID.TID 0000.0001) GUD_INIT_FIXED: 475.    0.0280    0.0049    0.0034         0.000014685
(PID.TID 0000.0001) GUD_INIT_FIXED: 500.    0.0191    0.0011    0.0033         0.000014685
(PID.TID 0000.0001) GUD_INIT_FIXED: 525.    0.0062    0.0017    0.0029         0.000014685
(PID.TID 0000.0001) GUD_INIT_FIXED: 550.    0.0029    0.0026    0.0025         0.000014685
(PID.TID 0000.0001) GUD_INIT_FIXED: 575.    0.0028    0.0028    0.0022         0.000014685
(PID.TID 0000.0001) GUD_INIT_FIXED: 600.    0.0035    0.0035    0.0019         0.000014685
(PID.TID 0000.0001) GUD_INIT_FIXED: 625.    0.0046    0.0046    0.0017         0.000014685
(PID.TID 0000.0001) GUD_INIT_FIXED: 650.    0.0064    0.0064    0.0015         0.000014685
(PID.TID 0000.0001) GUD_INIT_FIXED: 675.    0.0148    0.0148    0.0015         0.000014685
(PID.TID 0000.0001) GUD_INIT_FIXED: 700.    0.0060    0.0060    0.0016         0.000014685
(PID.TID 0000.0001) GUD_INIT_FIXED:
(PID.TID 0000.0001) GUD_INIT_FIXED: type    4
(PID.TID 0000.0001) GUD_INIT_FIXED:  lam ap        ap_ps     bp        bbp
(PID.TID 0000.0001) GUD_INIT_FIXED: 400.    0.0420    0.0225    0.0035         0.000014685
(PID.TID 0000.0001) GUD_INIT_FIXED: 425.    0.0604    0.0286    0.0032         0.000014685
(PID.TID 0000.0001) GUD_INIT_FIXED: 450.    0.0728    0.0262    0.0034         0.000014685
(PID.TID 0000.0001) GUD_INIT_FIXED: 475.    0.0584    0.0180    0.0034         0.000014685
(PID.TID 0000.0001) GUD_INIT_FIXED: 500.    0.0353    0.0030    0.0033         0.000014685
(PID.TID 0000.0001) GUD_INIT_FIXED: 525.    0.0132    0.0035    0.0029         0.000014685
(PID.TID 0000.0001) GUD_INIT_FIXED: 550.    0.0068    0.0061    0.0025         0.000014685
(PID.TID 0000.0001) GUD_INIT_FIXED: 575.    0.0055    0.0055    0.0022         0.000014685
(PID.TID 0000.0001) GUD_INIT_FIXED: 600.    0.0060    0.0060    0.0019         0.000014685
(PID.TID 0000.0001) GUD_INIT_FIXED: 625.    0.0067    0.0067    0.0017         0.000014685
(PID.TID 0000.0001) GUD_INIT_FIXED: 650.    0.0114    0.0114    0.0015         0.000014685
(PID.TID 0000.0001) GUD_INIT_FIXED: 675.    0.0159    0.0159    0.0015         0.000014685
(PID.TID 0000.0001) GUD_INIT_FIXED: 700.    0.0072    0.0072    0.0016         0.000014685
(PID.TID 0000.0001) GUD_INIT_FIXED:
(PID.TID 0000.0001) GUD_INIT_FIXED: particulate spectra:
(PID.TID 0000.0001) GUD_INIT_FIXED:  lam apart          bpart          bbpart
(PID.TID 0000.0001) GUD_INIT_FIXED: 400.   3.060000E-17   5.100000E-16   2.759100E-18
(PID.TID 0000.0001) GUD_INIT_FIXED: 425.   2.470000E-17   4.800000E-16   2.596800E-18
(PID.TID 0000.0001) GUD_INIT_FIXED: 450.   1.960000E-17   4.250000E-16   2.299250E-18
(PID.TID 0000.0001) GUD_INIT_FIXED: 475.   1.600000E-17   4.350000E-16   2.353350E-18
(PID.TID 0000.0001) GUD_INIT_FIXED: 500.   1.290000E-17   4.150000E-16   2.245150E-18
(PID.TID 0000.0001) GUD_INIT_FIXED: 525.   1.040000E-17   3.930000E-16   2.126130E-18
(PID.TID 0000.0001) GUD_INIT_FIXED: 550.   8.470000E-18   3.750000E-16   2.028750E-18
(PID.TID 0000.0001) GUD_INIT_FIXED: 575.   6.920000E-18   3.610000E-16   1.953010E-18
(PID.TID 0000.0001) GUD_INIT_FIXED: 600.   5.570000E-18   3.470000E-16   1.877270E-18
(PID.TID 0000.0001) GUD_INIT_FIXED: 625.   4.490000E-18   3.340000E-16   1.806940E-18
(PID.TID 0000.0001) GUD_INIT_FIXED: 650.   3.640000E-18   3.160000E-16   1.709560E-18
(PID.TID 0000.0001) GUD_INIT_FIXED: 675.   2.980000E-18   3.080000E-16   1.666280E-18
(PID.TID 0000.0001) GUD_INIT_FIXED: 700.   2.410000E-18   2.990000E-16   1.617590E-18
(PID.TID 0000.0001) GUD_INIT_FIXED:
(PID.TID 0000.0001) GUD_INIT_FIXED: particulate spectra in phosphorus units:
(PID.TID 0000.0001) GUD_INIT_FIXED:  lam apart_P        bpart_P        bbpart_P
(PID.TID 0000.0001) GUD_INIT_FIXED: 400.    0.030600000    0.510000000 0.002759100000
(PID.TID 0000.0001) GUD_INIT_FIXED: 425.    0.024700000    0.480000000 0.002596800000
(PID.TID 0000.0001) GUD_INIT_FIXED: 450.    0.019600000    0.425000000 0.002299250000
(PID.TID 0000.0001) GUD_INIT_FIXED: 475.    0.016000000    0.435000000 0.002353350000
(PID.TID 0000.0001) GUD_INIT_FIXED: 500.    0.012900000    0.415000000 0.002245150000
(PID.TID 0000.0001) GUD_INIT_FIXED: 525.    0.010400000    0.393000000 0.002126130000
(PID.TID 0000.0001) GUD_INIT_FIXED: 550.    0.008470000    0.375000000 0.002028750000
(PID.TID 0000.0001) GUD_INIT_FIXED: 575.    0.006920000    0.361000000 0.001953010000
(PID.TID 0000.0001) GUD_INIT_FIXED: 600.    0.005570000    0.347000000 0.001877270000
(PID.TID 0000.0001) GUD_INIT_FIXED: 625.    0.004490000    0.334000000 0.001806940000
(PID.TID 0000.0001) GUD_INIT_FIXED: 650.    0.003640000    0.316000000 0.001709560000
(PID.TID 0000.0001) GUD_INIT_FIXED: 675.    0.002980000    0.308000000 0.001666280000
(PID.TID 0000.0001) GUD_INIT_FIXED: 700.    0.002410000    0.299000000 0.001617590000
(PID.TID 0000.0001) GUD_INIT_FIXED:
(PID.TID 0000.0001) GUD_RANDOM_INIT: port_rand            11231   0.4077530000000000
 nopt           4           1           3           0
 ap           1           3           1
 ap_type           1           1
 nsource           1           3
 nopt           4           2           2           0
 ap           2           2           4
 ap_type           2           4
 nsource           2           2
 nopt           4           3           3           0
 ap           3           3           1
 ap_type           3           1
 nsource           3           3
 nopt           4           4           3           0
 ap           4           3           1
 ap_type           4           1
 nsource           4           3
 nopt           4           5           3           0
 ap           5           3           2
 ap_type           5           2
 nsource           5           3
 nopt           4           6           1           0
 ap           6           1           4
 ap_type           6           4
 nsource           6           1
 nopt           4           7           2           0
 ap           7           2           3
 ap_type           7           3
 nsource           7           2
 nopt           4           8           2           0
 ap           8           2           3
 ap_type           8           3
 nsource           8           2
 nopt           4           9           3           0
 ap           9           3           2
 ap_type           9           2
 nsource           9           3
 nopt           4          10           3           0
 ap          10           3           2
 ap_type          10           2
 nsource          10           3
 nopt           4          11           3           0
 ap          11           3           1
 ap_type          11           1
 nsource          11           3
 nopt           4          12           2           0
 ap          12           2           3
 ap_type          12           3
 nsource          12           2
 nopt           4          13           3           0
 ap          13           3           1
 ap_type          13           1
 nsource          13           3
 nopt           4          14           1           0
 ap          14           1           3
 ap_type          14           3
 nsource          14           1
 nopt           4          15           3           0
 ap          15           3           1
 ap_type          15           1
 nsource          15           3
 nopt           4          16           3           0
 ap          16           3           1
 ap_type          16           1
 nsource          16           3
 nopt           4          17           3           0
 ap          17           3           1
 ap_type          17           1
 nsource          17           3
 nopt           4          18           3           0
 ap          18           3           2
 ap_type          18           2
 nsource          18           3
 nopt           4          19           3           0
 ap          19           3           1
 ap_type          19           1
 nsource          19           3
 nopt           4          20           3           0
 ap          20           3           1
 ap_type          20           1
 nsource          20           3
 nopt           4          21           3           0
 ap          21           3           1
 ap_type          21           1
 nsource          21           3
 nopt           4          22           3           0
 ap          22           3           1
 ap_type          22           1
 nsource          22           3
 nopt           4          23           2           0
 ap          23           2           4
 ap_type          23           4
 nsource          23           2
 nopt           4          24           3           0
 ap          24           3           1
 ap_type          24           1
 nsource          24           3
 nopt           4          25           2           0
 ap          25           2           3
 ap_type          25           3
 nsource          25           2
 nopt           4          26           2           0
 ap          26           2           3
 ap_type          26           3
 nsource          26           2
 nopt           4          27           1           0
 ap          27           1           3
 ap_type          27           3
 nsource          27           1
 nopt           4          28           1           0
 ap          28           1           4
 ap_type          28           4
 nsource          28           1
 nopt           4          29           3           0
 ap          29           3           1
 ap_type          29           1
 nsource          29           3
 nopt           4          30           3           0
 ap          30           3           2
 ap_type          30           2
 nsource          30           3
 nopt           4          31           3           0
 ap          31           3           1
 ap_type          31           1
 nsource          31           3
 nopt           4          32           3           0
 ap          32           3           1
 ap_type          32           1
 nsource          32           3
 nopt           4          33           3           0
 ap          33           3           1
 ap_type          33           1
 nsource          33           3
 nopt           4          34           3           0
 ap          34           3           2
 ap_type          34           2
 nsource          34           3
 nopt           4          35           3           0
 ap          35           3           2
 ap_type          35           2
 nsource          35           3
 nopt           4          36           3           0
 ap          36           3           1
 ap_type          36           1
 nsource          36           3
 nopt           4          37           3           0
 ap          37           3           1
 ap_type          37           1
 nsource          37           3
 nopt           4          38           3           0
 ap          38           3           1
 ap_type          38           1
 nsource          38           3
 nopt           4          39           3           0
 ap          39           3           2
 ap_type          39           2
 nsource          39           3
 nopt           4          40           3           0
 ap          40           3           1
 ap_type          40           1
 nsource          40           3
 nopt           4          41           3           0
 ap          41           3           2
 ap_type          41           2
 nsource          41           3
 nopt           4          42           3           0
 ap          42           3           1
 ap_type          42           1
 nsource          42           3
 nopt           4          43           3           0
 ap          43           3           1
 ap_type          43           1
 nsource          43           3
 nopt           4          44           3           0
 ap          44           3           1
 ap_type          44           1
 nsource          44           3
 nopt           4          45           2           0
 ap          45           2           3
 ap_type          45           3
 nsource          45           2
 nopt           4          46           3           0
 ap          46           3           1
 ap_type          46           1
 nsource          46           3
 nopt           4          47           3           0
 ap          47           3           1
 ap_type          47           1
 nsource          47           3
 nopt           4          48           3           0
 ap          48           3           1
 ap_type          48           1
 nsource          48           3
 nopt           4          49           3           0
 ap          49           3           1
 ap_type          49           1
 nsource          49           3
 nopt           4          50           3           0
 ap          50           3           1
 ap_type          50           1
 nsource          50           3
 nopt           4          51           3           0
 ap          51           3           1
 ap_type          51           1
 nsource          51           3
 nopt           4          52           3           0
 ap          52           3           1
 ap_type          52           1
 nsource          52           3
 nopt           4          53           3           0
 ap          53           3           1
 ap_type          53           1
 nsource          53           3
 nopt           4          54           3           0
 ap          54           3           1
 ap_type          54           1
 nsource          54           3
 nopt           4          55           3           0
 ap          55           3           1
 ap_type          55           1
 nsource          55           3
 nopt           4          56           3           0
 ap          56           3           1
 ap_type          56           1
 nsource          56           3
 nopt           4          57           3           0
 ap          57           3           1
 ap_type          57           1
 nsource          57           3
 nopt           4          58           3           0
 ap          58           3           1
 ap_type          58           1
 nsource          58           3
 nopt           4          59           3           0
 ap          59           3           1
 ap_type          59           1
 nsource          59           3
 nopt           4          60           3           0
 ap          60           3           1
 ap_type          60           1
 nsource          60           3
 nopt           4          61           3           0
 ap          61           3           1
 ap_type          61           1
 nsource          61           3
 nopt           4          62           3           0
 ap          62           3           1
 ap_type          62           1
 nsource          62           3
 nopt           4          63           3           0
 ap          63           3           1
 ap_type          63           1
 nsource          63           3
 nopt           4          64           3           0
 ap          64           3           2
 ap_type          64           2
 nsource          64           3
 nopt           4          65           3           0
 ap          65           3           1
 ap_type          65           1
 nsource          65           3
 nopt           4          66           2           0
 ap          66           2           4
 ap_type          66           4
 nsource          66           2
 nopt           4          67           3           0
 ap          67           3           1
 ap_type          67           1
 nsource          67           3
 nopt           4          68           3           0
 ap          68           3           1
 ap_type          68           1
 nsource          68           3
 nopt           4          69           3           0
 ap          69           3           1
 ap_type          69           1
 nsource          69           3
 nopt           4          70           1           0
 ap          70           1           4
 ap_type          70           4
 nsource          70           1
 nopt           4          71           2           0
 ap          71           2           3
 ap_type          71           3
 nsource          71           2
 nopt           4          72           3           0
 ap          72           3           1
 ap_type          72           1
 nsource          72           3
 nopt           4          73           2           0
 ap          73           2           4
 ap_type          73           4
 nsource          73           2
 nopt           4          74           3           0
 ap          74           3           1
 ap_type          74           1
 nsource          74           3
 nopt           4          75           3           0
 ap          75           3           1
 ap_type          75           1
 nsource          75           3
 nopt           4          76           3           0
 ap          76           3           1
 ap_type          76           1
 nsource          76           3
 nopt           4          77           3           0
 ap          77           3           1
 ap_type          77           1
 nsource          77           3
 nopt           4          78           1           0
 ap          78           1           3
 ap_type          78           3
 nsource          78           1
(PID.TID 0000.0001)  GUD_INIT_FIXED: opening data.traits
(PID.TID 0000.0001)  OPEN_COPY_DATA_FILE: opening file data.traits
(PID.TID 0000.0001) // =======================================================
(PID.TID 0000.0001) // Removing comments from "data.traits"
(PID.TID 0000.0001) // =======================================================
(PID.TID 0000.0001)    1  &GUD_TRAITS
(PID.TID 0000.0001)    2  /
(PID.TID 0000.0001)    3  &GUD_RADTRANS_TRAITS
(PID.TID 0000.0001)    4  /
(PID.TID 0000.0001) // =======================================================
(PID.TID 0000.0001) // Parameter file "data.traits"
(PID.TID 0000.0001) // =======================================================
(PID.TID 0000.0001) > &GUD_TRAITS
(PID.TID 0000.0001) > /
(PID.TID 0000.0001) > &GUD_RADTRANS_TRAITS
(PID.TID 0000.0001) > /
(PID.TID 0000.0001) 
(PID.TID 0000.0001)  ===================================
(PID.TID 0000.0001) ------------------------------------------------------------
(PID.TID 0000.0001) DIAGNOSTICS_SET_LEVELS: done
(PID.TID 0000.0001)  Total Nb of available Diagnostics: ndiagt=  1575
(PID.TID 0000.0001)  write list of available Diagnostics to file: available_diagnostics.log
(PID.TID 0000.0001) SETDIAG: Allocate 35 x  1 Levels for Diagnostic #   144 TRAC01
(PID.TID 0000.0001) SETDIAG: Allocate 35 x  1 Levels for Diagnostic #   157 TRAC02
(PID.TID 0000.0001) SETDIAG: Allocate 35 x  1 Levels for Diagnostic #   170 TRAC03
(PID.TID 0000.0001) SETDIAG: Allocate 35 x  1 Levels for Diagnostic #   183 TRAC04
(PID.TID 0000.0001) SETDIAG: Allocate 35 x  1 Levels for Diagnostic #   196 TRAC05
(PID.TID 0000.0001) SETDIAG: Allocate 35 x  1 Levels for Diagnostic #   209 TRAC06
(PID.TID 0000.0001) SETDIAG: Allocate 35 x  1 Levels for Diagnostic #   222 TRAC07
(PID.TID 0000.0001) SETDIAG: Allocate 35 x  1 Levels for Diagnostic #   235 TRAC08
(PID.TID 0000.0001) SETDIAG: Allocate 35 x  1 Levels for Diagnostic #   248 TRAC09
(PID.TID 0000.0001) SETDIAG: Allocate 35 x  1 Levels for Diagnostic #   261 TRAC10
(PID.TID 0000.0001) SETDIAG: Allocate 35 x  1 Levels for Diagnostic #   274 TRAC11
(PID.TID 0000.0001) SETDIAG: Allocate 35 x  1 Levels for Diagnostic #   287 TRAC12
(PID.TID 0000.0001) SETDIAG: Allocate 35 x  1 Levels for Diagnostic #   300 TRAC13
(PID.TID 0000.0001) SETDIAG: Allocate 35 x  1 Levels for Diagnostic #   313 TRAC14
(PID.TID 0000.0001) SETDIAG: Allocate 35 x  1 Levels for Diagnostic #   326 TRAC15
(PID.TID 0000.0001) SETDIAG: Allocate 35 x  1 Levels for Diagnostic #   339 TRAC16
(PID.TID 0000.0001) SETDIAG: Allocate 35 x  1 Levels for Diagnostic #   352 TRAC17
(PID.TID 0000.0001) SETDIAG: Allocate 35 x  1 Levels for Diagnostic #   365 TRAC18
(PID.TID 0000.0001) SETDIAG: Allocate 35 x  1 Levels for Diagnostic #   378 TRAC19
(PID.TID 0000.0001) SETDIAG: Allocate 35 x  1 Levels for Diagnostic #   391 TRAC20
(PID.TID 0000.0001) SETDIAG: Allocate 35 x  1 Levels for Diagnostic #   404 TRAC21
(PID.TID 0000.0001) SETDIAG: Allocate 35 x  1 Levels for Diagnostic #   417 TRAC22
(PID.TID 0000.0001) SETDIAG: Allocate 35 x  1 Levels for Diagnostic #   430 TRAC23
(PID.TID 0000.0001) SETDIAG: Allocate 35 x  1 Levels for Diagnostic #   443 TRAC24
(PID.TID 0000.0001) SETDIAG: Allocate 35 x  1 Levels for Diagnostic #   456 TRAC25
(PID.TID 0000.0001) SETDIAG: Allocate 35 x  1 Levels for Diagnostic #   469 TRAC26
(PID.TID 0000.0001) SETDIAG: Allocate 35 x  1 Levels for Diagnostic #   482 TRAC27
(PID.TID 0000.0001) SETDIAG: Allocate 35 x  1 Levels for Diagnostic #   495 TRAC28
(PID.TID 0000.0001) SETDIAG: Allocate 35 x  1 Levels for Diagnostic #   508 TRAC29
(PID.TID 0000.0001) SETDIAG: Allocate 35 x  1 Levels for Diagnostic #   521 TRAC30
(PID.TID 0000.0001) SETDIAG: Allocate 35 x  1 Levels for Diagnostic #   534 TRAC31
(PID.TID 0000.0001) SETDIAG: Allocate 35 x  1 Levels for Diagnostic #   547 TRAC32
(PID.TID 0000.0001) SETDIAG: Allocate 35 x  1 Levels for Diagnostic #   560 TRAC33
(PID.TID 0000.0001) SETDIAG: Allocate 35 x  1 Levels for Diagnostic #   573 TRAC34
(PID.TID 0000.0001) SETDIAG: Allocate 35 x  1 Levels for Diagnostic #   586 TRAC35
(PID.TID 0000.0001) SETDIAG: Allocate 35 x  1 Levels for Diagnostic #   599 TRAC36
(PID.TID 0000.0001) SETDIAG: Allocate 35 x  1 Levels for Diagnostic #   612 TRAC37
(PID.TID 0000.0001) SETDIAG: Allocate 35 x  1 Levels for Diagnostic #   625 TRAC38
(PID.TID 0000.0001) SETDIAG: Allocate 35 x  1 Levels for Diagnostic #   638 TRAC39
(PID.TID 0000.0001) SETDIAG: Allocate 35 x  1 Levels for Diagnostic #   651 TRAC40
(PID.TID 0000.0001) SETDIAG: Allocate 35 x  1 Levels for Diagnostic #   664 TRAC41
(PID.TID 0000.0001) SETDIAG: Allocate 35 x  1 Levels for Diagnostic #   677 TRAC42
(PID.TID 0000.0001) SETDIAG: Allocate 35 x  1 Levels for Diagnostic #   690 TRAC43
(PID.TID 0000.0001) SETDIAG: Allocate 35 x  1 Levels for Diagnostic #   703 TRAC44
(PID.TID 0000.0001) SETDIAG: Allocate 35 x  1 Levels for Diagnostic #   716 TRAC45
(PID.TID 0000.0001) SETDIAG: Allocate 35 x  1 Levels for Diagnostic #   729 TRAC46
(PID.TID 0000.0001) SETDIAG: Allocate 35 x  1 Levels for Diagnostic #   742 TRAC47
(PID.TID 0000.0001) SETDIAG: Allocate 35 x  1 Levels for Diagnostic #   755 TRAC48
(PID.TID 0000.0001) SETDIAG: Allocate 35 x  1 Levels for Diagnostic #   768 TRAC49
(PID.TID 0000.0001) SETDIAG: Allocate 35 x  1 Levels for Diagnostic #   781 TRAC50
(PID.TID 0000.0001) SETDIAG: Allocate 35 x  1 Levels for Diagnostic #   794 TRAC51
(PID.TID 0000.0001) SETDIAG: Allocate 35 x  1 Levels for Diagnostic #   807 TRAC52
(PID.TID 0000.0001) SETDIAG: Allocate 35 x  1 Levels for Diagnostic #   820 TRAC53
(PID.TID 0000.0001) SETDIAG: Allocate 35 x  1 Levels for Diagnostic #   833 TRAC54
(PID.TID 0000.0001) SETDIAG: Allocate 35 x  1 Levels for Diagnostic #   846 TRAC55
(PID.TID 0000.0001) SETDIAG: Allocate 35 x  1 Levels for Diagnostic #   859 TRAC56
(PID.TID 0000.0001) SETDIAG: Allocate 35 x  1 Levels for Diagnostic #   872 TRAC57
(PID.TID 0000.0001) SETDIAG: Allocate 35 x  1 Levels for Diagnostic #   885 TRAC58
(PID.TID 0000.0001) SETDIAG: Allocate 35 x  1 Levels for Diagnostic #   898 TRAC59
(PID.TID 0000.0001) SETDIAG: Allocate 35 x  1 Levels for Diagnostic #   911 TRAC60
(PID.TID 0000.0001) SETDIAG: Allocate 35 x  1 Levels for Diagnostic #   924 TRAC61
(PID.TID 0000.0001) SETDIAG: Allocate 35 x  1 Levels for Diagnostic #   937 TRAC62
(PID.TID 0000.0001) SETDIAG: Allocate 35 x  1 Levels for Diagnostic #   950 TRAC63
(PID.TID 0000.0001) SETDIAG: Allocate 35 x  1 Levels for Diagnostic #   963 TRAC64
(PID.TID 0000.0001) SETDIAG: Allocate 35 x  1 Levels for Diagnostic #   976 TRAC65
(PID.TID 0000.0001) SETDIAG: Allocate 35 x  1 Levels for Diagnostic #   989 TRAC66
(PID.TID 0000.0001) SETDIAG: Allocate 35 x  1 Levels for Diagnostic #  1002 TRAC67
(PID.TID 0000.0001) SETDIAG: Allocate 35 x  1 Levels for Diagnostic #  1015 TRAC68
(PID.TID 0000.0001) SETDIAG: Allocate 35 x  1 Levels for Diagnostic #  1028 TRAC69
(PID.TID 0000.0001) SETDIAG: Allocate 35 x  1 Levels for Diagnostic #  1041 TRAC70
(PID.TID 0000.0001) SETDIAG: Allocate 35 x  1 Levels for Diagnostic #  1054 TRAC71
(PID.TID 0000.0001) SETDIAG: Allocate 35 x  1 Levels for Diagnostic #  1067 TRAC72
(PID.TID 0000.0001) SETDIAG: Allocate 35 x  1 Levels for Diagnostic #  1080 TRAC73
(PID.TID 0000.0001) SETDIAG: Allocate 35 x  1 Levels for Diagnostic #  1093 TRAC74
(PID.TID 0000.0001) SETDIAG: Allocate 35 x  1 Levels for Diagnostic #  1106 TRAC75
(PID.TID 0000.0001) SETDIAG: Allocate 35 x  1 Levels for Diagnostic #  1119 TRAC76
(PID.TID 0000.0001) SETDIAG: Allocate 35 x  1 Levels for Diagnostic #  1132 TRAC77
(PID.TID 0000.0001) SETDIAG: Allocate 35 x  1 Levels for Diagnostic #  1145 TRAC78
(PID.TID 0000.0001) SETDIAG: Allocate 35 x  1 Levels for Diagnostic #  1158 TRAC79
(PID.TID 0000.0001) SETDIAG: Allocate 35 x  1 Levels for Diagnostic #  1171 TRAC80
(PID.TID 0000.0001) SETDIAG: Allocate 35 x  1 Levels for Diagnostic #  1184 TRAC81
(PID.TID 0000.0001) SETDIAG: Allocate 35 x  1 Levels for Diagnostic #  1197 TRAC82
(PID.TID 0000.0001) SETDIAG: Allocate 35 x  1 Levels for Diagnostic #  1210 TRAC83
(PID.TID 0000.0001) SETDIAG: Allocate 35 x  1 Levels for Diagnostic #  1223 TRAC84
(PID.TID 0000.0001) SETDIAG: Allocate 35 x  1 Levels for Diagnostic #  1236 TRAC85
(PID.TID 0000.0001) SETDIAG: Allocate 35 x  1 Levels for Diagnostic #  1249 TRAC86
(PID.TID 0000.0001) SETDIAG: Allocate 35 x  1 Levels for Diagnostic #  1262 TRAC87
(PID.TID 0000.0001) SETDIAG: Allocate 35 x  1 Levels for Diagnostic #  1275 TRAC88
(PID.TID 0000.0001) SETDIAG: Allocate 35 x  1 Levels for Diagnostic #  1288 TRAC89
(PID.TID 0000.0001) SETDIAG: Allocate 35 x  1 Levels for Diagnostic #  1301 TRAC90
(PID.TID 0000.0001) SETDIAG: Allocate 35 x  1 Levels for Diagnostic #  1314 TRAC91
(PID.TID 0000.0001) SETDIAG: Allocate 35 x  1 Levels for Diagnostic #  1327 TRAC92
(PID.TID 0000.0001) SETDIAG: Allocate 35 x  1 Levels for Diagnostic #  1340 TRAC93
(PID.TID 0000.0001) SETDIAG: Allocate 35 x  1 Levels for Diagnostic #  1353 TRAC94
(PID.TID 0000.0001) SETDIAG: Allocate 35 x  1 Levels for Diagnostic #  1366 TRAC95
(PID.TID 0000.0001) SETDIAG: Allocate 35 x  1 Levels for Diagnostic #  1379 TRAC96
(PID.TID 0000.0001) SETDIAG: Allocate 35 x  1 Levels for Diagnostic #  1392 TRAC97
(PID.TID 0000.0001) SETDIAG: Allocate 35 x  1 Levels for Diagnostic #  1405 TRAC98
(PID.TID 0000.0001)   space allocated for all diagnostics:    3430 levels
(PID.TID 0000.0001) DIAGNOSTICS_SET_POINTERS: Set levels for Outp.Stream: gud
(PID.TID 0000.0001)  Levels:       1.   2.   3.   4.   5.   6.   7.   8.   9.  10.  11.  12.  13.  14.  15.  16.  17.  18.  19.  20.
(PID.TID 0000.0001)  Levels:      21.  22.  23.  24.  25.  26.  27.  28.  29.  30.  31.  32.  33.  34.  35.
(PID.TID 0000.0001) DIAGNOSTICS_SET_POINTERS: done
(PID.TID 0000.0001) ------------------------------------------------------------
(PID.TID 0000.0001) DIAGSTATS_SET_REGIONS: define no region
(PID.TID 0000.0001) ------------------------------------------------------------
(PID.TID 0000.0001)   space allocated for all stats-diags:       0 levels
(PID.TID 0000.0001) DIAGSTATS_SET_POINTERS: done
(PID.TID 0000.0001) ------------------------------------------------------------
(PID.TID 0000.0001) %MON fCori_max                    =  -4.3855676645210E-05
(PID.TID 0000.0001) %MON fCori_min                    =  -4.3855676645210E-05
(PID.TID 0000.0001) %MON fCori_mean                   =  -4.3855676645210E-05
(PID.TID 0000.0001) %MON fCori_sd                     =   0.0000000000000E+00
(PID.TID 0000.0001) %MON fCoriG_max                   =  -4.5067801836625E-05
(PID.TID 0000.0001) %MON fCoriG_min                   =  -4.5067801836625E-05
(PID.TID 0000.0001) %MON fCoriG_mean                  =  -4.5067801836625E-05
(PID.TID 0000.0001) %MON fCoriG_sd                    =   0.0000000000000E+00
(PID.TID 0000.0001) %MON fCoriCos_max                 =   1.3909243610207E-04
(PID.TID 0000.0001) %MON fCoriCos_min                 =   1.3909243610207E-04
(PID.TID 0000.0001) %MON fCoriCos_mean                =   1.3909243610207E-04
(PID.TID 0000.0001) %MON fCoriCos_sd                  =   0.0000000000000E+00
(PID.TID 0000.0001) INI_CG2D: CG2D normalisation factor =  2.7288038648017932E-04
(PID.TID 0000.0001) 
(PID.TID 0000.0001) // =======================================================
(PID.TID 0000.0001) // Model configuration
(PID.TID 0000.0001) // =======================================================
(PID.TID 0000.0001) //
(PID.TID 0000.0001) // "Physical" paramters ( PARM01 in namelist )
(PID.TID 0000.0001) //
(PID.TID 0000.0001) buoyancyRelation = /* Type of relation to get Buoyancy */
(PID.TID 0000.0001)               'OCEANIC'
(PID.TID 0000.0001)     ;
(PID.TID 0000.0001) fluidIsAir   =  /* fluid major constituent is Air */
(PID.TID 0000.0001)                   F
(PID.TID 0000.0001)     ;
(PID.TID 0000.0001) fluidIsWater =  /* fluid major constituent is Water */
(PID.TID 0000.0001)                   T
(PID.TID 0000.0001)     ;
(PID.TID 0000.0001) usingPCoords =  /* use p (or p*) vertical coordinate */
(PID.TID 0000.0001)                   F
(PID.TID 0000.0001)     ;
(PID.TID 0000.0001) usingZCoords =  /* use z (or z*) vertical coordinate */
(PID.TID 0000.0001)                   T
(PID.TID 0000.0001)     ;
(PID.TID 0000.0001) tRef =   /* Reference temperature profile ( oC or K ) */
(PID.TID 0000.0001)                 2.650000000000000E+01,      /* K =  1 */
(PID.TID 0000.0001)                 2.610000000000000E+01,      /* K =  2 */
(PID.TID 0000.0001)                 2.600000000000000E+01,      /* K =  3 */
(PID.TID 0000.0001)                 2.550000000000000E+01,      /* K =  4 */
(PID.TID 0000.0001)                 2.540000000000000E+01,      /* K =  5 */
(PID.TID 0000.0001)                 2.490000000000000E+01,      /* K =  6 */
(PID.TID 0000.0001)                 2.450000000000000E+01,      /* K =  7 */
(PID.TID 0000.0001)                 2.400000000000000E+01,      /* K =  8 */
(PID.TID 0000.0001)                 2.370000000000000E+01,      /* K =  9 */
(PID.TID 0000.0001)                 2.330000000000000E+01,      /* K = 10 */
(PID.TID 0000.0001)                 2.310000000000000E+01,      /* K = 11 */
(PID.TID 0000.0001)                 2.280000000000000E+01,      /* K = 12 */
(PID.TID 0000.0001)                 2.250000000000000E+01,      /* K = 13 */
(PID.TID 0000.0001)                 2.210000000000000E+01,      /* K = 14 */
(PID.TID 0000.0001)                 2.160000000000000E+01,      /* K = 15 */
(PID.TID 0000.0001)                 2.060000000000000E+01,      /* K = 16 */
(PID.TID 0000.0001)                 1.950000000000000E+01,      /* K = 17 */
(PID.TID 0000.0001)                 1.840000000000000E+01,      /* K = 18 */
(PID.TID 0000.0001)                 1.730000000000000E+01,      /* K = 19 */
(PID.TID 0000.0001)                 1.660000000000000E+01,      /* K = 20 */
(PID.TID 0000.0001)                 1.550000000000000E+01,      /* K = 21 */
(PID.TID 0000.0001)                 1.460000000000000E+01,      /* K = 22 */
(PID.TID 0000.0001)                 1.380000000000000E+01,      /* K = 23 */
(PID.TID 0000.0001)                 1.310000000000000E+01,      /* K = 24 */
(PID.TID 0000.0001)                 1.160000000000000E+01,      /* K = 25 */
(PID.TID 0000.0001)                 1.010000000000000E+01,      /* K = 26 */
(PID.TID 0000.0001)                 7.700000000000000E+00,      /* K = 27 */
(PID.TID 0000.0001)                 5.300000000000000E+00,      /* K = 28 */
(PID.TID 0000.0001)                 4.100000000000000E+00,      /* K = 29 */
(PID.TID 0000.0001)     2 @  3.700000000000000E+00,             /* K = 30: 31 */
(PID.TID 0000.0001)                 3.400000000000000E+00,      /* K = 32 */
(PID.TID 0000.0001)                 3.000000000000000E+00,      /* K = 33 */
(PID.TID 0000.0001)                 2.800000000000000E+00,      /* K = 34 */
(PID.TID 0000.0001)                 2.600000000000000E+00       /* K = 35 */
(PID.TID 0000.0001)     ;
(PID.TID 0000.0001) sRef =   /* Reference salinity profile ( psu ) */
(PID.TID 0000.0001)    35 @  3.500000000000000E+01              /* K =  1: 35 */
(PID.TID 0000.0001)     ;
(PID.TID 0000.0001) diffKhT =   /* Laplacian diffusion of heat laterally ( m^2/s ) */
(PID.TID 0000.0001)                 1.000000000000000E+02
(PID.TID 0000.0001)     ;
(PID.TID 0000.0001) diffK4T =   /* Biharmonic diffusion of heat laterally ( m^4/s ) */
(PID.TID 0000.0001)                 0.000000000000000E+00
(PID.TID 0000.0001)     ;
(PID.TID 0000.0001) diffKhS =   /* Laplacian diffusion of salt laterally ( m^2/s ) */
(PID.TID 0000.0001)                 0.000000000000000E+00
(PID.TID 0000.0001)     ;
(PID.TID 0000.0001) diffK4S =   /* Biharmonic diffusion of salt laterally ( m^4/s ) */
(PID.TID 0000.0001)                 0.000000000000000E+00
(PID.TID 0000.0001)     ;
(PID.TID 0000.0001) diffKrNrT = /* vertical profile of vertical diffusion of Temp ( m^2/s )*/
(PID.TID 0000.0001)    35 @  1.000000000000000E-04              /* K =  1: 35 */
(PID.TID 0000.0001)     ;
(PID.TID 0000.0001) diffKrNrS = /* vertical profile of vertical diffusion of Salt ( m^2/s )*/
(PID.TID 0000.0001)    35 @  0.000000000000000E+00              /* K =  1: 35 */
(PID.TID 0000.0001)     ;
(PID.TID 0000.0001) diffKrBL79surf = /* Surface diffusion for Bryan and Lewis 79 ( m^2/s ) */
(PID.TID 0000.0001)                 0.000000000000000E+00
(PID.TID 0000.0001)     ;
(PID.TID 0000.0001) diffKrBL79deep = /* Deep diffusion for Bryan and Lewis 1979 ( m^2/s ) */
(PID.TID 0000.0001)                 0.000000000000000E+00
(PID.TID 0000.0001)     ;
(PID.TID 0000.0001) diffKrBL79scl = /* Depth scale for Bryan and Lewis 1979 ( m ) */
(PID.TID 0000.0001)                 2.000000000000000E+02
(PID.TID 0000.0001)     ;
(PID.TID 0000.0001) diffKrBL79Ho = /* Turning depth for Bryan and Lewis 1979 ( m ) */
(PID.TID 0000.0001)                -2.000000000000000E+03
(PID.TID 0000.0001)     ;
(PID.TID 0000.0001) ivdc_kappa = /* Implicit Vertical Diffusivity for Convection ( m^2/s) */
(PID.TID 0000.0001)                 0.000000000000000E+00
(PID.TID 0000.0001)     ;
(PID.TID 0000.0001) hMixCriteria=  /* Criteria for mixed-layer diagnostic */
(PID.TID 0000.0001)                -8.000000000000000E-01
(PID.TID 0000.0001)     ;
(PID.TID 0000.0001) dRhoSmall =  /* Parameter for mixed-layer diagnostic */
(PID.TID 0000.0001)                 1.000000000000000E-06
(PID.TID 0000.0001)     ;
(PID.TID 0000.0001) hMixSmooth=  /* Smoothing parameter for mixed-layer diagnostic */
(PID.TID 0000.0001)                 0.000000000000000E+00
(PID.TID 0000.0001)     ;
(PID.TID 0000.0001) eosType =  /* Type of Equation of State */
(PID.TID 0000.0001)               'JMD95Z'
(PID.TID 0000.0001)     ;
(PID.TID 0000.0001) selectP_inEOS_Zc = /* select pressure to use in EOS (0,1,2,3) */
(PID.TID 0000.0001)                       0
(PID.TID 0000.0001)     0= -g*rhoConst*z ; 1= pRef (from tRef,sRef); 2= Hyd P ; 3= Hyd+NH P
(PID.TID 0000.0001)     ;
(PID.TID 0000.0001) phi0Ref = /* reference (P,geo) potential at origin rF(1) (m^2/s^2) */
(PID.TID 0000.0001)                 0.000000000000000E+00
(PID.TID 0000.0001)     ;
(PID.TID 0000.0001) HeatCapacity_Cp =  /* Specific heat capacity ( J/kg/K ) */
(PID.TID 0000.0001)                 3.994000000000000E+03
(PID.TID 0000.0001)     ;
(PID.TID 0000.0001) celsius2K = /* 0 degree Celsius converted to Kelvin ( K ) */
(PID.TID 0000.0001)                 2.731500000000000E+02
(PID.TID 0000.0001)     ;
(PID.TID 0000.0001) rhoConst  = /* Reference density (Boussinesq)  ( kg/m^3 ) */
(PID.TID 0000.0001)                 9.998000000000000E+02
(PID.TID 0000.0001)     ;
(PID.TID 0000.0001) rhoFacC = /* normalized Reference density @ cell-Center (-) */
(PID.TID 0000.0001)    35 @  1.000000000000000E+00              /* K =  1: 35 */
(PID.TID 0000.0001)     ;
(PID.TID 0000.0001) rhoFacF = /* normalized Reference density @ W-Interface (-) */
(PID.TID 0000.0001)    36 @  1.000000000000000E+00              /* K =  1: 36 */
(PID.TID 0000.0001)     ;
(PID.TID 0000.0001) rhoConstFresh = /* Fresh-water reference density ( kg/m^3 ) */
(PID.TID 0000.0001)                 9.998000000000000E+02
(PID.TID 0000.0001)     ;
(PID.TID 0000.0001) gravity =   /* Gravitational acceleration ( m/s^2 ) */
(PID.TID 0000.0001)                 9.810000000000000E+00
(PID.TID 0000.0001)     ;
(PID.TID 0000.0001) gBaro =   /* Barotropic gravity ( m/s^2 ) */
(PID.TID 0000.0001)                 9.810000000000000E+00
(PID.TID 0000.0001)     ;
(PID.TID 0000.0001) gravFacC = /* gravity factor (vs surf.) @ cell-Center (-) */
(PID.TID 0000.0001)    35 @  1.000000000000000E+00              /* K =  1: 35 */
(PID.TID 0000.0001)     ;
(PID.TID 0000.0001) gravFacF = /* gravity factor (vs surf.) @ W-Interface (-) */
(PID.TID 0000.0001)    36 @  1.000000000000000E+00              /* K =  1: 36 */
(PID.TID 0000.0001)     ;
(PID.TID 0000.0001) rotationPeriod =   /* Rotation Period ( s ) */
(PID.TID 0000.0001)                 8.616400000000000E+04
(PID.TID 0000.0001)     ;
(PID.TID 0000.0001) omega =   /* Angular velocity ( rad/s ) */
(PID.TID 0000.0001)                 7.292123516990375E-05
(PID.TID 0000.0001)     ;
(PID.TID 0000.0001) f0 =   /* Reference coriolis parameter ( 1/s ) */
(PID.TID 0000.0001)                 1.000000000000000E-04
(PID.TID 0000.0001)     ;
(PID.TID 0000.0001) beta =   /* Beta ( 1/(m.s) ) */
(PID.TID 0000.0001)                 9.999999999999999E-12
(PID.TID 0000.0001)     ;
(PID.TID 0000.0001) fPrime =   /* Second coriolis parameter ( 1/s ) */
(PID.TID 0000.0001)                 0.000000000000000E+00
(PID.TID 0000.0001)     ;
(PID.TID 0000.0001) rigidLid =   /* Rigid lid on/off flag */
(PID.TID 0000.0001)                   T
(PID.TID 0000.0001)     ;
(PID.TID 0000.0001) implicitFreeSurface =   /* Implicit free surface on/off flag */
(PID.TID 0000.0001)                   F
(PID.TID 0000.0001)     ;
(PID.TID 0000.0001) freeSurfFac =   /* Implicit free surface factor */
(PID.TID 0000.0001)                 0.000000000000000E+00
(PID.TID 0000.0001)     ;
(PID.TID 0000.0001) implicSurfPress =  /* Surface Pressure implicit factor (0-1)*/
(PID.TID 0000.0001)                 1.000000000000000E+00
(PID.TID 0000.0001)     ;
(PID.TID 0000.0001) implicDiv2Dflow =  /* Barot. Flow Div. implicit factor (0-1)*/
(PID.TID 0000.0001)                 1.000000000000000E+00
(PID.TID 0000.0001)     ;
(PID.TID 0000.0001) uniformLin_PhiSurf = /* use uniform Bo_surf on/off flag*/
(PID.TID 0000.0001)                   T
(PID.TID 0000.0001)     ;
(PID.TID 0000.0001) uniformFreeSurfLev = /* free-surface level-index is uniform */
(PID.TID 0000.0001)                   T
(PID.TID 0000.0001)     ;
(PID.TID 0000.0001) hFacMin =   /* minimum partial cell factor (hFac) */
(PID.TID 0000.0001)                 1.000000000000000E+00
(PID.TID 0000.0001)     ;
(PID.TID 0000.0001) hFacMinDr = /* minimum partial cell thickness ( m) */
(PID.TID 0000.0001)                 0.000000000000000E+00
(PID.TID 0000.0001)     ;
(PID.TID 0000.0001) exactConserv =  /* Exact Volume Conservation on/off flag*/
(PID.TID 0000.0001)                   F
(PID.TID 0000.0001)     ;
(PID.TID 0000.0001) linFSConserveTr = /* Tracer correction for Lin Free Surface on/off flag*/
(PID.TID 0000.0001)                   F
(PID.TID 0000.0001)     ;
(PID.TID 0000.0001) nonlinFreeSurf = /* Non-linear Free Surf. options (-1,0,1,2,3)*/
(PID.TID 0000.0001)                       0
(PID.TID 0000.0001)      -1,0= Off ; 1,2,3= On, 2=+rescale gU,gV, 3=+update cg2d solv.
(PID.TID 0000.0001)     ;
(PID.TID 0000.0001) hFacInf =   /* lower threshold for hFac (nonlinFreeSurf only)*/
(PID.TID 0000.0001)                 2.000000000000000E-01
(PID.TID 0000.0001)     ;
(PID.TID 0000.0001) hFacSup =   /* upper threshold for hFac (nonlinFreeSurf only)*/
(PID.TID 0000.0001)                 2.000000000000000E+00
(PID.TID 0000.0001)     ;
(PID.TID 0000.0001) select_rStar = /* r* Vertical coord. options (=0 r coord.; >0 uses r*)*/
(PID.TID 0000.0001)                       0
(PID.TID 0000.0001)     ;
(PID.TID 0000.0001) useRealFreshWaterFlux = /* Real Fresh Water Flux on/off flag*/
(PID.TID 0000.0001)                   F
(PID.TID 0000.0001)     ;
(PID.TID 0000.0001) temp_EvPrRn = /* Temp. of Evap/Prec/R (UNSET=use local T)(oC)*/
(PID.TID 0000.0001)                 1.234567000000000E+05
(PID.TID 0000.0001)     ;
(PID.TID 0000.0001) salt_EvPrRn = /* Salin. of Evap/Prec/R (UNSET=use local S)(psu)*/
(PID.TID 0000.0001)                 0.000000000000000E+00
(PID.TID 0000.0001)     ;
(PID.TID 0000.0001) selectAddFluid = /* option for mass source/sink of fluid (=0: off) */
(PID.TID 0000.0001)                       0
(PID.TID 0000.0001)     ;
(PID.TID 0000.0001) temp_addMass = /* Temp. of addMass array (UNSET=use local T)(oC)*/
(PID.TID 0000.0001)                 1.234567000000000E+05
(PID.TID 0000.0001)     ;
(PID.TID 0000.0001) salt_addMass = /* Salin. of addMass array (UNSET=use local S)(psu)*/
(PID.TID 0000.0001)                 0.000000000000000E+00
(PID.TID 0000.0001)     ;
(PID.TID 0000.0001) convertFW2Salt = /* convert F.W. Flux to Salt Flux (-1=use local S)(psu)*/
(PID.TID 0000.0001)                 3.500000000000000E+01
(PID.TID 0000.0001)     ;
(PID.TID 0000.0001) use3Dsolver = /* use 3-D pressure solver on/off flag */
(PID.TID 0000.0001)                   F
(PID.TID 0000.0001)     ;
(PID.TID 0000.0001) nonHydrostatic =  /* Non-Hydrostatic on/off flag */
(PID.TID 0000.0001)                   F
(PID.TID 0000.0001)     ;
(PID.TID 0000.0001) nh_Am2 = /* Non-Hydrostatic terms scaling factor */
(PID.TID 0000.0001)                 1.000000000000000E+00
(PID.TID 0000.0001)     ;
(PID.TID 0000.0001) implicitNHPress = /* Non-Hyd Pressure implicit factor (0-1)*/
(PID.TID 0000.0001)                 1.000000000000000E+00
(PID.TID 0000.0001)     ;
(PID.TID 0000.0001) selectNHfreeSurf = /* Non-Hyd (free-)Surface option */
(PID.TID 0000.0001)                       0
(PID.TID 0000.0001)     ;
(PID.TID 0000.0001) quasiHydrostatic = /* Quasi-Hydrostatic on/off flag */
(PID.TID 0000.0001)                   F
(PID.TID 0000.0001)     ;
(PID.TID 0000.0001) calc_wVelocity = /* vertical velocity calculation on/off flag */
(PID.TID 0000.0001)                   F
(PID.TID 0000.0001)     ;
(PID.TID 0000.0001) momStepping =  /* Momentum equation on/off flag */
(PID.TID 0000.0001)                   F
(PID.TID 0000.0001)     ;
(PID.TID 0000.0001) vectorInvariantMomentum= /* Vector-Invariant Momentum on/off */
(PID.TID 0000.0001)                   F
(PID.TID 0000.0001)     ;
(PID.TID 0000.0001) momAdvection =  /* Momentum advection on/off flag */
(PID.TID 0000.0001)                   F
(PID.TID 0000.0001)     ;
(PID.TID 0000.0001) momViscosity =  /* Momentum viscosity on/off flag */
(PID.TID 0000.0001)                   F
(PID.TID 0000.0001)     ;
(PID.TID 0000.0001) momImplVertAdv= /* Momentum implicit vert. advection on/off*/
(PID.TID 0000.0001)                   F
(PID.TID 0000.0001)     ;
(PID.TID 0000.0001) implicitViscosity = /* Implicit viscosity on/off flag */
(PID.TID 0000.0001)                   F
(PID.TID 0000.0001)     ;
(PID.TID 0000.0001) implBottomFriction= /* Implicit bottom friction on/off flag */
(PID.TID 0000.0001)                   F
(PID.TID 0000.0001)     ;
(PID.TID 0000.0001) metricTerms =  /* metric-Terms on/off flag */
(PID.TID 0000.0001)                   T
(PID.TID 0000.0001)     ;
(PID.TID 0000.0001) useNHMTerms = /* Non-Hydrostatic Metric-Terms on/off */
(PID.TID 0000.0001)                   F
(PID.TID 0000.0001)     ;
(PID.TID 0000.0001) selectCoriMap = /* Coriolis Map options (0,1,2,3)*/
(PID.TID 0000.0001)                       2
(PID.TID 0000.0001)     0= f-Plane ; 1= Beta-Plane ; 2= Spherical ; 3= read from file
(PID.TID 0000.0001)     ;
(PID.TID 0000.0001) use3dCoriolis = /* 3-D Coriolis on/off flag */
(PID.TID 0000.0001)                   F
(PID.TID 0000.0001)     ;
(PID.TID 0000.0001) useCoriolis =  /* Coriolis on/off flag */
(PID.TID 0000.0001)                   F
(PID.TID 0000.0001)     ;
(PID.TID 0000.0001) useCDscheme =  /* CD scheme on/off flag */
(PID.TID 0000.0001)                   F
(PID.TID 0000.0001)     ;
(PID.TID 0000.0001) useEnergyConservingCoriolis= /* Flx-Form Coriolis scheme flag */
(PID.TID 0000.0001)                   F
(PID.TID 0000.0001)     ;
(PID.TID 0000.0001) useJamartWetPoints= /* Coriolis WetPoints method flag */
(PID.TID 0000.0001)                   F
(PID.TID 0000.0001)     ;
(PID.TID 0000.0001) useJamartMomAdv= /* V.I Non-linear terms Jamart flag */
(PID.TID 0000.0001)                   F
(PID.TID 0000.0001)     ;
(PID.TID 0000.0001) useAbsVorticity= /* V.I Works with f+zeta in Coriolis */
(PID.TID 0000.0001)                   F
(PID.TID 0000.0001)     ;
(PID.TID 0000.0001) selectVortScheme= /* V.I Scheme selector for Vorticity-Term */
(PID.TID 0000.0001)               123456789
(PID.TID 0000.0001)    = 0 : enstrophy (Shallow-Water Eq.) conserving scheme by Sadourny, JAS 75
(PID.TID 0000.0001)    = 1 : same as 0 with modified hFac
(PID.TID 0000.0001)    = 2 : energy conserving scheme (used by Sadourny in JAS 75 paper)
(PID.TID 0000.0001)    = 3 : energy (general) and enstrophy (2D, nonDiv.) conserving scheme
(PID.TID 0000.0001)          from Sadourny (Burridge & Haseler, ECMWF Rep.4, 1977)
(PID.TID 0000.0001)     ;
(PID.TID 0000.0001) upwindVorticity= /* V.I Upwind bias vorticity flag */
(PID.TID 0000.0001)                   F
(PID.TID 0000.0001)     ;
(PID.TID 0000.0001) highOrderVorticity= /* V.I High order vort. advect. flag */
(PID.TID 0000.0001)                   F
(PID.TID 0000.0001)     ;
(PID.TID 0000.0001) upwindShear= /* V.I Upwind vertical Shear advection flag */
(PID.TID 0000.0001)                   F
(PID.TID 0000.0001)     ;
(PID.TID 0000.0001) selectKEscheme= /* V.I Kinetic Energy scheme selector */
(PID.TID 0000.0001)                       0
(PID.TID 0000.0001)     ;
(PID.TID 0000.0001) momForcing =  /* Momentum forcing on/off flag */
(PID.TID 0000.0001)                   F
(PID.TID 0000.0001)     ;
(PID.TID 0000.0001) momPressureForcing =  /* Momentum pressure term on/off flag */
(PID.TID 0000.0001)                   F
(PID.TID 0000.0001)     ;
(PID.TID 0000.0001) implicitIntGravWave= /* Implicit Internal Gravity Wave flag */
(PID.TID 0000.0001)                   F
(PID.TID 0000.0001)     ;
(PID.TID 0000.0001) staggerTimeStep =    /* Stagger time stepping on/off flag */
(PID.TID 0000.0001)                   F
(PID.TID 0000.0001)     ;
(PID.TID 0000.0001) doResetHFactors = /* reset thickness factors @ each time-step */
(PID.TID 0000.0001)                   F
(PID.TID 0000.0001)     ;
(PID.TID 0000.0001) multiDimAdvection =  /* enable/disable Multi-Dim Advection */
(PID.TID 0000.0001)                   T
(PID.TID 0000.0001)     ;
(PID.TID 0000.0001) useMultiDimAdvec =   /* Multi-Dim Advection is/is-not used */
(PID.TID 0000.0001)                   T
(PID.TID 0000.0001)     ;
(PID.TID 0000.0001) implicitDiffusion = /* Implicit Diffusion on/off flag */
(PID.TID 0000.0001)                   T
(PID.TID 0000.0001)     ;
(PID.TID 0000.0001) tempStepping =  /* Temperature equation on/off flag */
(PID.TID 0000.0001)                   T
(PID.TID 0000.0001)     ;
(PID.TID 0000.0001) tempAdvection = /* Temperature advection on/off flag */
(PID.TID 0000.0001)                   T
(PID.TID 0000.0001)     ;
(PID.TID 0000.0001) tempImplVertAdv = /* Temp. implicit vert. advection on/off */
(PID.TID 0000.0001)                   F
(PID.TID 0000.0001)     ;
(PID.TID 0000.0001) tempForcing  =  /* Temperature forcing on/off flag */
(PID.TID 0000.0001)                   T
(PID.TID 0000.0001)     ;
(PID.TID 0000.0001) doThetaClimRelax = /* apply SST relaxation on/off flag */
(PID.TID 0000.0001)                   T
(PID.TID 0000.0001)     ;
(PID.TID 0000.0001) tempIsActiveTr = /* Temp. is a dynamically Active Tracer */
(PID.TID 0000.0001)                   F
(PID.TID 0000.0001)     ;
(PID.TID 0000.0001) saltStepping =  /* Salinity equation on/off flag */
(PID.TID 0000.0001)                   F
(PID.TID 0000.0001)     ;
(PID.TID 0000.0001) saltAdvection = /* Salinity advection on/off flag */
(PID.TID 0000.0001)                   F
(PID.TID 0000.0001)     ;
(PID.TID 0000.0001) saltImplVertAdv = /* Sali. implicit vert. advection on/off */
(PID.TID 0000.0001)                   F
(PID.TID 0000.0001)     ;
(PID.TID 0000.0001) saltForcing  =  /* Salinity forcing on/off flag */
(PID.TID 0000.0001)                   F
(PID.TID 0000.0001)     ;
(PID.TID 0000.0001) doSaltClimRelax = /* apply SSS relaxation on/off flag */
(PID.TID 0000.0001)                   F
(PID.TID 0000.0001)     ;
(PID.TID 0000.0001) saltIsActiveTr = /* Salt  is a dynamically Active Tracer */
(PID.TID 0000.0001)                   F
(PID.TID 0000.0001)     ;
(PID.TID 0000.0001)  readBinaryPrec = /* Precision used for reading binary files */
(PID.TID 0000.0001)                      32
(PID.TID 0000.0001)     ;
(PID.TID 0000.0001) writeBinaryPrec = /* Precision used for writing binary files */
(PID.TID 0000.0001)                      64
(PID.TID 0000.0001)     ;
(PID.TID 0000.0001)  globalFiles = /* write "global" (=not per tile) files */
(PID.TID 0000.0001)                   F
(PID.TID 0000.0001)     ;
(PID.TID 0000.0001)  useSingleCpuIO = /* only master MPI process does I/O */
(PID.TID 0000.0001)                   T
(PID.TID 0000.0001)     ;
(PID.TID 0000.0001)  useSingleCpuInput = /* only master process reads input */
(PID.TID 0000.0001)                   T
(PID.TID 0000.0001)     ;
(PID.TID 0000.0001) /* debLev[*]  : level of debug & auxiliary message printing */
(PID.TID 0000.0001) debLevZero =  0 ; /* level of disabled aux. msg printing */
(PID.TID 0000.0001)    debLevA =  1 ; /* level of minimum  aux. msg printing */
(PID.TID 0000.0001)    debLevB =  2 ; /* level of low aux. print (report read-file opening)*/
(PID.TID 0000.0001)    debLevC =  3 ; /* level of moderate debug prt (most pkgs debug msg) */
(PID.TID 0000.0001)    debLevD =  4 ; /* level of enhanced debug prt (add DEBUG_STATS prt) */
(PID.TID 0000.0001)    debLevE =  5 ; /* level of extensive debug printing */
(PID.TID 0000.0001) debugLevel =  /* select debug printing level */
(PID.TID 0000.0001)                       2
(PID.TID 0000.0001)     ;
(PID.TID 0000.0001) //
(PID.TID 0000.0001) // Elliptic solver(s) paramters ( PARM02 in namelist )
(PID.TID 0000.0001) //
(PID.TID 0000.0001) cg2dMaxIters =   /* Upper limit on 2d con. grad iterations  */
(PID.TID 0000.0001)                     300
(PID.TID 0000.0001)     ;
(PID.TID 0000.0001) cg2dChkResFreq =   /* 2d con. grad convergence test frequency */
(PID.TID 0000.0001)                       1
(PID.TID 0000.0001)     ;
(PID.TID 0000.0001) cg2dUseMinResSol= /* use cg2d last-iter(=0) / min-resid.(=1) solution */
(PID.TID 0000.0001)                       0
(PID.TID 0000.0001)     ;
(PID.TID 0000.0001) cg2dTargetResidual =   /* 2d con. grad target residual  */
(PID.TID 0000.0001)                 1.000000000000000E-07
(PID.TID 0000.0001)     ;
(PID.TID 0000.0001) cg2dTargetResWunit =   /* CG2d target residual [W units] */
(PID.TID 0000.0001)                -1.000000000000000E+00
(PID.TID 0000.0001)     ;
(PID.TID 0000.0001) cg2dPreCondFreq =   /* Freq. for updating cg2d preconditioner */
(PID.TID 0000.0001)                       1
(PID.TID 0000.0001)     ;
(PID.TID 0000.0001) useSRCGSolver =  /* use single reduction CG solver(s) */
(PID.TID 0000.0001)                   F
(PID.TID 0000.0001)     ;
(PID.TID 0000.0001) printResidualFreq = /* Freq. for printing CG residual */
(PID.TID 0000.0001)                       0
(PID.TID 0000.0001)     ;
(PID.TID 0000.0001) //
(PID.TID 0000.0001) // Time stepping paramters ( PARM03 in namelist )
(PID.TID 0000.0001) //
(PID.TID 0000.0001) deltaTMom =   /* Momentum equation timestep ( s ) */
(PID.TID 0000.0001)                 3.600000000000000E+03
(PID.TID 0000.0001)     ;
(PID.TID 0000.0001) deltaTFreeSurf = /* FreeSurface equation timestep ( s ) */
(PID.TID 0000.0001)                 3.600000000000000E+03
(PID.TID 0000.0001)     ;
(PID.TID 0000.0001) dTtracerLev =  /* Tracer equation timestep ( s ) */
(PID.TID 0000.0001)    35 @  3.600000000000000E+03              /* K =  1: 35 */
(PID.TID 0000.0001)     ;
(PID.TID 0000.0001) deltaTClock  =   /* Model clock timestep ( s ) */
(PID.TID 0000.0001)                 3.600000000000000E+03
(PID.TID 0000.0001)     ;
(PID.TID 0000.0001) cAdjFreq =   /* Convective adjustment interval ( s ) */
(PID.TID 0000.0001)                 3.600000000000000E+03
(PID.TID 0000.0001)     ;
(PID.TID 0000.0001) momForcingOutAB = /* =1: take Momentum Forcing out of Adams-Bash. stepping */
(PID.TID 0000.0001)                       0
(PID.TID 0000.0001)     ;
(PID.TID 0000.0001) tracForcingOutAB = /* =1: take T,S,pTr Forcing out of Adams-Bash. stepping */
(PID.TID 0000.0001)                       0
(PID.TID 0000.0001)     ;
(PID.TID 0000.0001) momDissip_In_AB = /* put Dissipation Tendency in Adams-Bash. stepping */
(PID.TID 0000.0001)                   T
(PID.TID 0000.0001)     ;
(PID.TID 0000.0001) doAB_onGtGs = /* apply AB on Tendencies (rather than on T,S)*/
(PID.TID 0000.0001)                   T
(PID.TID 0000.0001)     ;
(PID.TID 0000.0001) abEps =   /* Adams-Bashforth-2 stabilizing weight */
(PID.TID 0000.0001)                 1.000000000000000E-01
(PID.TID 0000.0001)     ;
(PID.TID 0000.0001) applyExchUV_early = /* Apply EXCH to U,V earlier in time-step */
(PID.TID 0000.0001)                   F
(PID.TID 0000.0001)     ;
(PID.TID 0000.0001) pickupStrictlyMatch= /* stop if pickup do not strictly match */
(PID.TID 0000.0001)                   T
(PID.TID 0000.0001)     ;
(PID.TID 0000.0001) nIter0   =   /* Run starting timestep number */
(PID.TID 0000.0001)                       0
(PID.TID 0000.0001)     ;
(PID.TID 0000.0001) nTimeSteps = /* Number of timesteps */
(PID.TID 0000.0001)                       4
(PID.TID 0000.0001)     ;
(PID.TID 0000.0001) nEndIter =   /* Run ending timestep number */
(PID.TID 0000.0001)                       4
(PID.TID 0000.0001)     ;
(PID.TID 0000.0001) baseTime =   /* Model base time ( s ) */
(PID.TID 0000.0001)                 0.000000000000000E+00
(PID.TID 0000.0001)     ;
(PID.TID 0000.0001) startTime =  /* Run start time ( s ) */
(PID.TID 0000.0001)                 0.000000000000000E+00
(PID.TID 0000.0001)     ;
(PID.TID 0000.0001) endTime  =   /* Integration ending time ( s ) */
(PID.TID 0000.0001)                 1.440000000000000E+04
(PID.TID 0000.0001)     ;
(PID.TID 0000.0001) pChkPtFreq = /* Permanent restart/pickup file interval ( s ) */
(PID.TID 0000.0001)                 3.110400000000000E+07
(PID.TID 0000.0001)     ;
(PID.TID 0000.0001) chkPtFreq  = /* Rolling restart/pickup file interval ( s ) */
(PID.TID 0000.0001)                 3.110400000000000E+07
(PID.TID 0000.0001)     ;
(PID.TID 0000.0001) pickup_write_mdsio =   /* Model IO flag. */
(PID.TID 0000.0001)                   T
(PID.TID 0000.0001)     ;
(PID.TID 0000.0001) pickup_read_mdsio =   /* Model IO flag. */
(PID.TID 0000.0001)                   T
(PID.TID 0000.0001)     ;
(PID.TID 0000.0001) pickup_write_mnc =   /* Model IO flag. */
(PID.TID 0000.0001)                   F
(PID.TID 0000.0001)     ;
(PID.TID 0000.0001) pickup_read_mnc =   /* Model IO flag. */
(PID.TID 0000.0001)                   F
(PID.TID 0000.0001)     ;
(PID.TID 0000.0001) pickup_write_immed =   /* Model IO flag. */
(PID.TID 0000.0001)                   F
(PID.TID 0000.0001)     ;
(PID.TID 0000.0001) writePickupAtEnd =   /* Model IO flag. */
(PID.TID 0000.0001)                   T
(PID.TID 0000.0001)     ;
(PID.TID 0000.0001) dumpFreq =   /* Model state write out interval ( s ). */
(PID.TID 0000.0001)                 3.600000000000000E+03
(PID.TID 0000.0001)     ;
(PID.TID 0000.0001) dumpInitAndLast= /* write out Initial & Last iter. model state */
(PID.TID 0000.0001)                   T
(PID.TID 0000.0001)     ;
(PID.TID 0000.0001) snapshot_mdsio =   /* Model IO flag. */
(PID.TID 0000.0001)                   F
(PID.TID 0000.0001)     ;
(PID.TID 0000.0001) snapshot_mnc =   /* Model IO flag. */
(PID.TID 0000.0001)                   T
(PID.TID 0000.0001)     ;
(PID.TID 0000.0001) monitorFreq =   /* Monitor output interval ( s ). */
(PID.TID 0000.0001)                 1.000000000000000E+00
(PID.TID 0000.0001)     ;
(PID.TID 0000.0001) monitorSelect = /* select group of variables to monitor */
(PID.TID 0000.0001)                       3
(PID.TID 0000.0001)     ;
(PID.TID 0000.0001) monitor_stdio =   /* Model IO flag. */
(PID.TID 0000.0001)                   T
(PID.TID 0000.0001)     ;
(PID.TID 0000.0001) monitor_mnc =   /* Model IO flag. */
(PID.TID 0000.0001)                   F
(PID.TID 0000.0001)     ;
(PID.TID 0000.0001) externForcingPeriod =   /* forcing period (s) */
(PID.TID 0000.0001)                 2.592000000000000E+06
(PID.TID 0000.0001)     ;
(PID.TID 0000.0001) externForcingCycle =   /* period of the cyle (s). */
(PID.TID 0000.0001)                 3.110400000000000E+07
(PID.TID 0000.0001)     ;
(PID.TID 0000.0001) tauThetaClimRelax =   /* relaxation time scale (s) */
(PID.TID 0000.0001)                 2.592000000000000E+05
(PID.TID 0000.0001)     ;
(PID.TID 0000.0001) tauSaltClimRelax =   /* relaxation time scale (s) */
(PID.TID 0000.0001)                 0.000000000000000E+00
(PID.TID 0000.0001)     ;
(PID.TID 0000.0001) latBandClimRelax =   /* max. Lat. where relaxation */
(PID.TID 0000.0001)                 1.800000000000000E+02
(PID.TID 0000.0001)     ;
(PID.TID 0000.0001) //
(PID.TID 0000.0001) // Gridding paramters ( PARM04 in namelist )
(PID.TID 0000.0001) //
(PID.TID 0000.0001) usingCartesianGrid = /* Cartesian coordinates flag ( True/False ) */
(PID.TID 0000.0001)                   F
(PID.TID 0000.0001)     ;
(PID.TID 0000.0001) usingCylindricalGrid = /* Cylindrical coordinates flag ( True/False ) */
(PID.TID 0000.0001)                   F
(PID.TID 0000.0001)     ;
(PID.TID 0000.0001) usingSphericalPolarGrid = /* Spherical coordinates flag ( True/False ) */
(PID.TID 0000.0001)                   T
(PID.TID 0000.0001)     ;
(PID.TID 0000.0001) usingCurvilinearGrid = /* Curvilinear coordinates flag ( True/False ) */
(PID.TID 0000.0001)                   F
(PID.TID 0000.0001)     ;
(PID.TID 0000.0001) selectSigmaCoord = /* Hybrid-Sigma Vert. Coordinate option */
(PID.TID 0000.0001)                       0
(PID.TID 0000.0001)     ;
(PID.TID 0000.0001) Ro_SeaLevel = /* r(1) ( units of r ==  m ) */
(PID.TID 0000.0001)                 0.000000000000000E+00
(PID.TID 0000.0001)     ;
(PID.TID 0000.0001) rSigmaBnd = /* r/sigma transition ( units of r ==  m ) */
(PID.TID 0000.0001)                 1.234567000000000E+05
(PID.TID 0000.0001)     ;
(PID.TID 0000.0001) rkSign =   /* index orientation relative to vertical coordinate */
(PID.TID 0000.0001)                -1.000000000000000E+00
(PID.TID 0000.0001)     ;
(PID.TID 0000.0001) gravitySign = /* gravity orientation relative to vertical coordinate */
(PID.TID 0000.0001)                -1.000000000000000E+00
(PID.TID 0000.0001)     ;
(PID.TID 0000.0001) mass2rUnit = /* convert mass per unit area [kg/m2] to r-units [m] */
(PID.TID 0000.0001)                 1.000200040008002E-03
(PID.TID 0000.0001)     ;
(PID.TID 0000.0001) rUnit2mass = /* convert r-units [m] to mass per unit area [kg/m2] */
(PID.TID 0000.0001)                 9.998000000000000E+02
(PID.TID 0000.0001)     ;
(PID.TID 0000.0001) drC =   /* C spacing ( units of r ) */
(PID.TID 0000.0001)                 5.000000000000000E+00,      /* K =  1 */
(PID.TID 0000.0001)    13 @  1.000000000000000E+01,             /* K =  2: 14 */
(PID.TID 0000.0001)                 1.250000000000000E+01,      /* K = 15 */
(PID.TID 0000.0001)     4 @  1.500000000000000E+01,             /* K = 16: 19 */
(PID.TID 0000.0001)                 1.750000000000000E+01,      /* K = 20 */
(PID.TID 0000.0001)     3 @  2.000000000000000E+01,             /* K = 21: 23 */
(PID.TID 0000.0001)                 3.500000000000000E+01,      /* K = 24 */
(PID.TID 0000.0001)                 5.000000000000000E+01,      /* K = 25 */
(PID.TID 0000.0001)                 7.500000000000000E+01,      /* K = 26 */
(PID.TID 0000.0001)                 1.250000000000000E+02,      /* K = 27 */
(PID.TID 0000.0001)                 1.500000000000000E+02,      /* K = 28 */
(PID.TID 0000.0001)                 1.750000000000000E+02,      /* K = 29 */
(PID.TID 0000.0001)                 2.500000000000000E+02,      /* K = 30 */
(PID.TID 0000.0001)                 3.500000000000000E+02,      /* K = 31 */
(PID.TID 0000.0001)     2 @  4.000000000000000E+02,             /* K = 32: 33 */
(PID.TID 0000.0001)                 4.500000000000000E+02,      /* K = 34 */
(PID.TID 0000.0001)                 5.000000000000000E+02,      /* K = 35 */
(PID.TID 0000.0001)                 2.500000000000000E+02       /* K = 36 */
(PID.TID 0000.0001)     ;
(PID.TID 0000.0001) drF =   /* W spacing ( units of r ) */
(PID.TID 0000.0001)    14 @  1.000000000000000E+01,             /* K =  1: 14 */
(PID.TID 0000.0001)     5 @  1.500000000000000E+01,             /* K = 15: 19 */
(PID.TID 0000.0001)     4 @  2.000000000000000E+01,             /* K = 20: 23 */
(PID.TID 0000.0001)     2 @  5.000000000000000E+01,             /* K = 24: 25 */
(PID.TID 0000.0001)                 1.000000000000000E+02,      /* K = 26 */
(PID.TID 0000.0001)     2 @  1.500000000000000E+02,             /* K = 27: 28 */
(PID.TID 0000.0001)                 2.000000000000000E+02,      /* K = 29 */
(PID.TID 0000.0001)                 3.000000000000000E+02,      /* K = 30 */
(PID.TID 0000.0001)     3 @  4.000000000000000E+02,             /* K = 31: 33 */
(PID.TID 0000.0001)     2 @  5.000000000000000E+02              /* K = 34: 35 */
(PID.TID 0000.0001)     ;
(PID.TID 0000.0001) delX = /* U spacing ( m - cartesian, degrees - spherical ) */
(PID.TID 0000.0001)                 1.000000000000000E+00       /* I =  1 */
(PID.TID 0000.0001)     ;
(PID.TID 0000.0001) delY = /* V spacing ( m - cartesian, degrees - spherical ) */
(PID.TID 0000.0001)                 1.000000000000000E+00       /* J =  1 */
(PID.TID 0000.0001)     ;
(PID.TID 0000.0001) xgOrigin = /* X-axis origin of West  edge (cartesian: m, lat-lon: deg) */
(PID.TID 0000.0001)                 3.350000000000000E+02
(PID.TID 0000.0001)     ;
(PID.TID 0000.0001) ygOrigin = /* Y-axis origin of South edge (cartesian: m, lat-lon: deg) */
(PID.TID 0000.0001)                -1.800000000000000E+01
(PID.TID 0000.0001)     ;
(PID.TID 0000.0001) rSphere =  /* Radius ( ignored - cartesian, m - spherical ) */
(PID.TID 0000.0001)                 6.370000000000000E+06
(PID.TID 0000.0001)     ;
(PID.TID 0000.0001) deepAtmosphere = /* Deep/Shallow Atmosphere flag (True/False) */
(PID.TID 0000.0001)                   F
(PID.TID 0000.0001)     ;
(PID.TID 0000.0001) xC =  /* xC(:,1,:,1) : P-point X coord ( deg. or m if cartesian) */
(PID.TID 0000.0001)                 3.355000000000000E+02       /* I =  1 */
(PID.TID 0000.0001)     ;
(PID.TID 0000.0001) yC =  /* yC(1,:,1,:) : P-point Y coord ( deg. or m if cartesian) */
(PID.TID 0000.0001)                -1.750000000000000E+01       /* J =  1 */
(PID.TID 0000.0001)     ;
(PID.TID 0000.0001) rcoord = /* P-point R coordinate (  units of r ) */
(PID.TID 0000.0001)                -5.000000000000000E+00,      /* K =  1 */
(PID.TID 0000.0001)                -1.500000000000000E+01,      /* K =  2 */
(PID.TID 0000.0001)                -2.500000000000000E+01,      /* K =  3 */
(PID.TID 0000.0001)                -3.500000000000000E+01,      /* K =  4 */
(PID.TID 0000.0001)                -4.500000000000000E+01,      /* K =  5 */
(PID.TID 0000.0001)                -5.500000000000000E+01,      /* K =  6 */
(PID.TID 0000.0001)                -6.500000000000000E+01,      /* K =  7 */
(PID.TID 0000.0001)                -7.500000000000000E+01,      /* K =  8 */
(PID.TID 0000.0001)                -8.500000000000000E+01,      /* K =  9 */
(PID.TID 0000.0001)                -9.500000000000000E+01,      /* K = 10 */
(PID.TID 0000.0001)                -1.050000000000000E+02,      /* K = 11 */
(PID.TID 0000.0001)                -1.150000000000000E+02,      /* K = 12 */
(PID.TID 0000.0001)                -1.250000000000000E+02,      /* K = 13 */
(PID.TID 0000.0001)                -1.350000000000000E+02,      /* K = 14 */
(PID.TID 0000.0001)                -1.475000000000000E+02,      /* K = 15 */
(PID.TID 0000.0001)                -1.625000000000000E+02,      /* K = 16 */
(PID.TID 0000.0001)                -1.775000000000000E+02,      /* K = 17 */
(PID.TID 0000.0001)                -1.925000000000000E+02,      /* K = 18 */
(PID.TID 0000.0001)                -2.075000000000000E+02,      /* K = 19 */
(PID.TID 0000.0001)                -2.250000000000000E+02,      /* K = 20 */
(PID.TID 0000.0001)                -2.450000000000000E+02,      /* K = 21 */
(PID.TID 0000.0001)                -2.650000000000000E+02,      /* K = 22 */
(PID.TID 0000.0001)                -2.850000000000000E+02,      /* K = 23 */
(PID.TID 0000.0001)                -3.200000000000000E+02,      /* K = 24 */
(PID.TID 0000.0001)                -3.700000000000000E+02,      /* K = 25 */
(PID.TID 0000.0001)                -4.450000000000000E+02,      /* K = 26 */
(PID.TID 0000.0001)                -5.700000000000000E+02,      /* K = 27 */
(PID.TID 0000.0001)                -7.200000000000000E+02,      /* K = 28 */
(PID.TID 0000.0001)                -8.950000000000000E+02,      /* K = 29 */
(PID.TID 0000.0001)                -1.145000000000000E+03,      /* K = 30 */
(PID.TID 0000.0001)                -1.495000000000000E+03,      /* K = 31 */
(PID.TID 0000.0001)                -1.895000000000000E+03,      /* K = 32 */
(PID.TID 0000.0001)                -2.295000000000000E+03,      /* K = 33 */
(PID.TID 0000.0001)                -2.745000000000000E+03,      /* K = 34 */
(PID.TID 0000.0001)                -3.245000000000000E+03       /* K = 35 */
(PID.TID 0000.0001)     ;
(PID.TID 0000.0001) rF =   /* W-Interf. R coordinate (  units of r ) */
(PID.TID 0000.0001)                 0.000000000000000E+00,      /* K =  1 */
(PID.TID 0000.0001)                -1.000000000000000E+01,      /* K =  2 */
(PID.TID 0000.0001)                -2.000000000000000E+01,      /* K =  3 */
(PID.TID 0000.0001)                -3.000000000000000E+01,      /* K =  4 */
(PID.TID 0000.0001)                -4.000000000000000E+01,      /* K =  5 */
(PID.TID 0000.0001)                -5.000000000000000E+01,      /* K =  6 */
(PID.TID 0000.0001)                -6.000000000000000E+01,      /* K =  7 */
(PID.TID 0000.0001)                -7.000000000000000E+01,      /* K =  8 */
(PID.TID 0000.0001)                -8.000000000000000E+01,      /* K =  9 */
(PID.TID 0000.0001)                -9.000000000000000E+01,      /* K = 10 */
(PID.TID 0000.0001)                -1.000000000000000E+02,      /* K = 11 */
(PID.TID 0000.0001)                -1.100000000000000E+02,      /* K = 12 */
(PID.TID 0000.0001)                -1.200000000000000E+02,      /* K = 13 */
(PID.TID 0000.0001)                -1.300000000000000E+02,      /* K = 14 */
(PID.TID 0000.0001)                -1.400000000000000E+02,      /* K = 15 */
(PID.TID 0000.0001)                -1.550000000000000E+02,      /* K = 16 */
(PID.TID 0000.0001)                -1.700000000000000E+02,      /* K = 17 */
(PID.TID 0000.0001)                -1.850000000000000E+02,      /* K = 18 */
(PID.TID 0000.0001)                -2.000000000000000E+02,      /* K = 19 */
(PID.TID 0000.0001)                -2.150000000000000E+02,      /* K = 20 */
(PID.TID 0000.0001)                -2.350000000000000E+02,      /* K = 21 */
(PID.TID 0000.0001)                -2.550000000000000E+02,      /* K = 22 */
(PID.TID 0000.0001)                -2.750000000000000E+02,      /* K = 23 */
(PID.TID 0000.0001)                -2.950000000000000E+02,      /* K = 24 */
(PID.TID 0000.0001)                -3.450000000000000E+02,      /* K = 25 */
(PID.TID 0000.0001)                -3.950000000000000E+02,      /* K = 26 */
(PID.TID 0000.0001)                -4.950000000000000E+02,      /* K = 27 */
(PID.TID 0000.0001)                -6.450000000000000E+02,      /* K = 28 */
(PID.TID 0000.0001)                -7.950000000000000E+02,      /* K = 29 */
(PID.TID 0000.0001)                -9.950000000000000E+02,      /* K = 30 */
(PID.TID 0000.0001)                -1.295000000000000E+03,      /* K = 31 */
(PID.TID 0000.0001)                -1.695000000000000E+03,      /* K = 32 */
(PID.TID 0000.0001)                -2.095000000000000E+03,      /* K = 33 */
(PID.TID 0000.0001)                -2.495000000000000E+03,      /* K = 34 */
(PID.TID 0000.0001)                -2.995000000000000E+03,      /* K = 35 */
(PID.TID 0000.0001)                -3.495000000000000E+03       /* K = 36 */
(PID.TID 0000.0001)     ;
(PID.TID 0000.0001) deepFacC = /* deep-model grid factor @ cell-Center (-) */
(PID.TID 0000.0001)    35 @  1.000000000000000E+00              /* K =  1: 35 */
(PID.TID 0000.0001)     ;
(PID.TID 0000.0001) deepFacF = /* deep-model grid factor @ W-Interface (-) */
(PID.TID 0000.0001)    36 @  1.000000000000000E+00              /* K =  1: 36 */
(PID.TID 0000.0001)     ;
(PID.TID 0000.0001) rVel2wUnit = /* convert units: rVel -> wSpeed (=1 if z-coord)*/
(PID.TID 0000.0001)    36 @  1.000000000000000E+00              /* K =  1: 36 */
(PID.TID 0000.0001)     ;
(PID.TID 0000.0001) wUnit2rVel = /* convert units: wSpeed -> rVel (=1 if z-coord)*/
(PID.TID 0000.0001)    36 @  1.000000000000000E+00              /* K =  1: 36 */
(PID.TID 0000.0001)     ;
(PID.TID 0000.0001) dBdrRef = /* Vertical grad. of reference buoyancy [(m/s/r)^2] */
(PID.TID 0000.0001)                 0.000000000000000E+00,      /* K =  1 */
(PID.TID 0000.0001)                 1.232578190459821E-04,      /* K =  2 */
(PID.TID 0000.0001)                 3.063957957303617E-05,      /* K =  3 */
(PID.TID 0000.0001)                 1.521320422054373E-04,      /* K =  4 */
(PID.TID 0000.0001)                 3.021271930223580E-05,      /* K =  5 */
(PID.TID 0000.0001)                 1.499903428890670E-04,      /* K =  6 */
(PID.TID 0000.0001)                 1.186737265074332E-04,      /* K =  7 */
(PID.TID 0000.0001)                 1.466841384627423E-04,      /* K =  8 */
(PID.TID 0000.0001)                 8.712618931102987E-05,      /* K =  9 */
(PID.TID 0000.0001)                 1.151380441308261E-04,      /* K = 10 */
(PID.TID 0000.0001)                 5.712979717883684E-05,      /* K = 11 */
(PID.TID 0000.0001)                 8.515049872565506E-05,      /* K = 12 */
(PID.TID 0000.0001)                 8.448721842774896E-05,      /* K = 13 */
(PID.TID 0000.0001)                 1.116043428725511E-04,      /* K = 14 */
(PID.TID 0000.0001)                 1.102373809396796E-04,      /* K = 15 */
(PID.TID 0000.0001)                 1.798828639202717E-04,      /* K = 16 */
(PID.TID 0000.0001)                 1.918102676980872E-04,      /* K = 17 */
(PID.TID 0000.0001)                 1.853506120896664E-04,      /* K = 18 */
(PID.TID 0000.0001)                 1.787791674911888E-04,      /* K = 19 */
(PID.TID 0000.0001)                 9.455522998141848E-05,      /* K = 20 */
(PID.TID 0000.0001)                 1.259231836379978E-04,      /* K = 21 */
(PID.TID 0000.0001)                 9.923620256554768E-05,      /* K = 22 */
(PID.TID 0000.0001)                 8.531935398693722E-05,      /* K = 23 */
(PID.TID 0000.0001)                 4.137475825384700E-05,      /* K = 24 */
(PID.TID 0000.0001)                 5.930109718499171E-05,      /* K = 25 */
(PID.TID 0000.0001)                 3.689739454308316E-05,      /* K = 26 */
(PID.TID 0000.0001)                 3.215311288275425E-05,      /* K = 27 */
(PID.TID 0000.0001)                 2.340106578013931E-05,      /* K = 28 */
(PID.TID 0000.0001)                 8.957465806881803E-06,      /* K = 29 */
(PID.TID 0000.0001)                 2.029141226789735E-06,      /* K = 30 */
(PID.TID 0000.0001)                 0.000000000000000E+00,      /* K = 31 */
(PID.TID 0000.0001)                 1.052869956707729E-06,      /* K = 32 */
(PID.TID 0000.0001)                 1.465965950004292E-06,      /* K = 33 */
(PID.TID 0000.0001)                 6.817081889333135E-07,      /* K = 34 */
(PID.TID 0000.0001)                 6.544800624285541E-07       /* K = 35 */
(PID.TID 0000.0001)     ;
(PID.TID 0000.0001) rotateGrid = /* use rotated grid ( True/False ) */
(PID.TID 0000.0001)                   F
(PID.TID 0000.0001)     ;
(PID.TID 0000.0001) phiEuler = /* Euler angle, rotation about original z-coordinate [rad] */
(PID.TID 0000.0001)                 0.000000000000000E+00
(PID.TID 0000.0001)     ;
(PID.TID 0000.0001) thetaEuler = /* Euler angle, rotation about new x-coordinate [rad] */
(PID.TID 0000.0001)                 0.000000000000000E+00
(PID.TID 0000.0001)     ;
(PID.TID 0000.0001) psiEuler = /* Euler angle, rotation about new z-coordinate [rad] */
(PID.TID 0000.0001)                 0.000000000000000E+00
(PID.TID 0000.0001)     ;
(PID.TID 0000.0001) dxF =  /* dxF(:,1,:,1) ( units: m ) */
(PID.TID 0000.0001)                 1.060318408771987E+05       /* I =  1 */
(PID.TID 0000.0001)     ;
(PID.TID 0000.0001) dxF =  /* dxF(1,:,1,:) ( units: m ) */
(PID.TID 0000.0001)                 1.060318408771987E+05       /* J =  1 */
(PID.TID 0000.0001)     ;
(PID.TID 0000.0001) dyF =  /* dyF(:,1,:,1) ( units: m ) */
(PID.TID 0000.0001)                 1.111774733520388E+05       /* I =  1 */
(PID.TID 0000.0001)     ;
(PID.TID 0000.0001) dyF =  /* dyF(1,:,1,:) ( units: m ) */
(PID.TID 0000.0001)                 1.111774733520388E+05       /* J =  1 */
(PID.TID 0000.0001)     ;
(PID.TID 0000.0001) dxG =  /* dxG(:,1,:,1) ( units: m ) */
(PID.TID 0000.0001)                 1.057360604966873E+05       /* I =  1 */
(PID.TID 0000.0001)     ;
(PID.TID 0000.0001) dxG =  /* dxG(1,:,1,:) ( units: m ) */
(PID.TID 0000.0001)                 1.057360604966873E+05       /* J =  1 */
(PID.TID 0000.0001)     ;
(PID.TID 0000.0001) dyG =  /* dyG(:,1,:,1) ( units: m ) */
(PID.TID 0000.0001)                 1.111774733520388E+05       /* I =  1 */
(PID.TID 0000.0001)     ;
(PID.TID 0000.0001) dyG =  /* dyG(1,:,1,:) ( units: m ) */
(PID.TID 0000.0001)                 1.111774733520388E+05       /* J =  1 */
(PID.TID 0000.0001)     ;
(PID.TID 0000.0001) dxC =  /* dxC(:,1,:,1) ( units: m ) */
(PID.TID 0000.0001)                 1.060318408771987E+05       /* I =  1 */
(PID.TID 0000.0001)     ;
(PID.TID 0000.0001) dxC =  /* dxC(1,:,1,:) ( units: m ) */
(PID.TID 0000.0001)                 1.060318408771987E+05       /* J =  1 */
(PID.TID 0000.0001)     ;
(PID.TID 0000.0001) dyC =  /* dyC(:,1,:,1) ( units: m ) */
(PID.TID 0000.0001)                 1.111774733520388E+05       /* I =  1 */
(PID.TID 0000.0001)     ;
(PID.TID 0000.0001) dyC =  /* dyC(1,:,1,:) ( units: m ) */
(PID.TID 0000.0001)                 1.111774733520388E+05       /* J =  1 */
(PID.TID 0000.0001)     ;
(PID.TID 0000.0001) dxV =  /* dxV(:,1,:,1) ( units: m ) */
(PID.TID 0000.0001)                 1.057360604966873E+05       /* I =  1 */
(PID.TID 0000.0001)     ;
(PID.TID 0000.0001) dxV =  /* dxV(1,:,1,:) ( units: m ) */
(PID.TID 0000.0001)                 1.057360604966873E+05       /* J =  1 */
(PID.TID 0000.0001)     ;
(PID.TID 0000.0001) dyU =  /* dyU(:,1,:,1) ( units: m ) */
(PID.TID 0000.0001)                 1.111774733520388E+05       /* I =  1 */
(PID.TID 0000.0001)     ;
(PID.TID 0000.0001) dyU =  /* dyU(1,:,1,:) ( units: m ) */
(PID.TID 0000.0001)                 1.111774733520388E+05       /* J =  1 */
(PID.TID 0000.0001)     ;
(PID.TID 0000.0001) rA  =  /* rA (:,1,:,1) ( units: m^2 ) */
(PID.TID 0000.0001)                 1.178820254176956E+10       /* I =  1 */
(PID.TID 0000.0001)     ;
(PID.TID 0000.0001) rA  =  /* rA (1,:,1,:) ( units: m^2 ) */
(PID.TID 0000.0001)                 1.178820254176956E+10       /* J =  1 */
(PID.TID 0000.0001)     ;
(PID.TID 0000.0001) rAw =  /* rAw(:,1,:,1) ( units: m^2 ) */
(PID.TID 0000.0001)                 1.178820254176956E+10       /* I =  1 */
(PID.TID 0000.0001)     ;
(PID.TID 0000.0001) rAw =  /* rAw(1,:,1,:) ( units: m^2 ) */
(PID.TID 0000.0001)                 1.178820254176956E+10       /* J =  1 */
(PID.TID 0000.0001)     ;
(PID.TID 0000.0001) rAs =  /* rAs(:,1,:,1) ( units: m^2 ) */
(PID.TID 0000.0001)                 1.175531884377377E+10       /* I =  1 */
(PID.TID 0000.0001)     ;
(PID.TID 0000.0001) rAs =  /* rAs(1,:,1,:) ( units: m^2 ) */
(PID.TID 0000.0001)                 1.175531884377377E+10       /* J =  1 */
(PID.TID 0000.0001)     ;
(PID.TID 0000.0001) globalArea = /* Integrated horizontal Area (m^2) */
(PID.TID 0000.0001)                 1.178820254176956E+10
(PID.TID 0000.0001)     ;
(PID.TID 0000.0001) // =======================================================
(PID.TID 0000.0001) // End of Model config. summary
(PID.TID 0000.0001) // =======================================================
(PID.TID 0000.0001) 
(PID.TID 0000.0001) == Packages configuration : Check & print summary ==
(PID.TID 0000.0001) 
(PID.TID 0000.0001) PTRACERS_CHECK: #define ALLOW_PTRACERS
(PID.TID 0000.0001) // ===================================
(PID.TID 0000.0001) // PTRACERS parameters
(PID.TID 0000.0001) // ===================================
(PID.TID 0000.0001) PTRACERS_numInUse = /* number of tracers */
(PID.TID 0000.0001)                      98
(PID.TID 0000.0001)     ;
(PID.TID 0000.0001) PTRACERS_Iter0 = /* timestep number when tracers are initialized */
(PID.TID 0000.0001)                       0
(PID.TID 0000.0001)     ;
(PID.TID 0000.0001) PTRACERS_startAllTrc =/* all tracers start @ startTime */
(PID.TID 0000.0001)                   T
(PID.TID 0000.0001)     ;
(PID.TID 0000.0001) PTRACERS_doAB_onGpTr =/* apply AB on Tendencies (rather than on Tracers) */
(PID.TID 0000.0001)                   T
(PID.TID 0000.0001)     ;
(PID.TID 0000.0001) PTRACERS_addSrelax2EmP =/* add Salt relaxation to EmP */
(PID.TID 0000.0001)                   F
(PID.TID 0000.0001)     ;
(PID.TID 0000.0001) PTRACERS_dTLev =   /* Ptracer timestep ( s ) */
(PID.TID 0000.0001)    35 @  3.600000000000000E+03              /* K =  1: 35 */
(PID.TID 0000.0001)     ;
(PID.TID 0000.0001) PTRACERS_monitorFreq = /* Frequency^-1 for monitor output (s) */
(PID.TID 0000.0001)                 1.000000000000000E+00
(PID.TID 0000.0001)     ;
(PID.TID 0000.0001) PTRACERS_dumpFreq = /* Frequency^-1 for snapshot output (s) */
(PID.TID 0000.0001)                 3.600000000000000E+03
(PID.TID 0000.0001)     ;
(PID.TID 0000.0001) PTRACERS_taveFreq = /* Frequency^-1 for time-Aver. output (s) */
(PID.TID 0000.0001)                 2.592000000000000E+06
(PID.TID 0000.0001)     ;
(PID.TID 0000.0001) PTRACERS_useRecords = /* all tracers in 1 file */
(PID.TID 0000.0001)                   F
(PID.TID 0000.0001)     ;
(PID.TID 0000.0001) PTRACERS_timeave_mnc = /* use MNC for Tave output */
(PID.TID 0000.0001)                   T
(PID.TID 0000.0001)     ;
(PID.TID 0000.0001) PTRACERS_snapshot_mnc = /* use MNC for snapshot output */
(PID.TID 0000.0001)                   T
(PID.TID 0000.0001)     ;
(PID.TID 0000.0001) PTRACERS_pickup_write_mnc = /* use MNC for writing pickups */
(PID.TID 0000.0001)                   F
(PID.TID 0000.0001)     ;
(PID.TID 0000.0001) PTRACERS_pickup_read_mnc = /* use MNC for reading pickups */
(PID.TID 0000.0001)                   F
(PID.TID 0000.0001)     ;
(PID.TID 0000.0001)  -----------------------------------
(PID.TID 0000.0001)  tracer number :    1
(PID.TID 0000.0001) PTRACERS_names = /* Tracer short name */
(PID.TID 0000.0001)               'DIC'
(PID.TID 0000.0001)     ;
(PID.TID 0000.0001) PTRACERS_long_names = /* Tracer long name */
(PID.TID 0000.0001)               ''
(PID.TID 0000.0001)     ;
(PID.TID 0000.0001) PTRACERS_ioLabel = /* tracer IO Label */
(PID.TID 0000.0001)               '01'
(PID.TID 0000.0001)     ;
(PID.TID 0000.0001) PTRACERS_advScheme = /* Advection Scheme */
(PID.TID 0000.0001)                      33
(PID.TID 0000.0001)     ;
(PID.TID 0000.0001) PTRACERS_SOM_Advection = /* tracer uses SOM advection scheme */
(PID.TID 0000.0001)                   F
(PID.TID 0000.0001)     ;
(PID.TID 0000.0001) PTRACERS_ImplVertAdv = /* implicit vert. advection flag */
(PID.TID 0000.0001)                   F
(PID.TID 0000.0001)     ;
(PID.TID 0000.0001) PTRACERS_MultiDimAdv = /* tracer uses Multi-Dim advection */
(PID.TID 0000.0001)                   T
(PID.TID 0000.0001)     ;
(PID.TID 0000.0001) PTRACERS_AdamsBashGtr = /* apply AB on tracer tendency */
(PID.TID 0000.0001)                   F
(PID.TID 0000.0001)     ;
(PID.TID 0000.0001) PTRACERS_AdamsBash_Tr = /* apply AB on passive tracer */
(PID.TID 0000.0001)                   F
(PID.TID 0000.0001)     ;
(PID.TID 0000.0001) PTRACERS_diffKh = /* Laplacian Diffusivity */
(PID.TID 0000.0001)                 0.000000000000000E+00
(PID.TID 0000.0001)     ;
(PID.TID 0000.0001) PTRACERS_diffK4 = /* Biharmonic Diffusivity */
(PID.TID 0000.0001)                 0.000000000000000E+00
(PID.TID 0000.0001)     ;
(PID.TID 0000.0001) PTRACERS_diffKrNr = /* Vertical Diffusivity */
(PID.TID 0000.0001)    35 @  1.000000000000000E-05              /* K =  1: 35 */
(PID.TID 0000.0001)     ;
(PID.TID 0000.0001) PTRACERS_useGMRedi = /* apply GM-Redi */
(PID.TID 0000.0001)                   F
(PID.TID 0000.0001)     ;
(PID.TID 0000.0001) PTRACERS_useDWNSLP = /* apply DOWN-SLOPE Flow */
(PID.TID 0000.0001)                   F
(PID.TID 0000.0001)     ;
(PID.TID 0000.0001) PTRACERS_useKPP = /* apply KPP scheme */
(PID.TID 0000.0001)                   F
(PID.TID 0000.0001)     ;
(PID.TID 0000.0001) PTRACERS_ref = /* Reference vertical profile */
(PID.TID 0000.0001)    35 @  2.000000000000000E+03              /* K =  1: 35 */
(PID.TID 0000.0001)     ;
(PID.TID 0000.0001) PTRACERS_EvPrRn =/* tracer conc. in Evap. & Rain */
(PID.TID 0000.0001)                 1.234567000000000E+05
(PID.TID 0000.0001)     ;
(PID.TID 0000.0001)  -----------------------------------
(PID.TID 0000.0001)  tracer number :    2
(PID.TID 0000.0001) PTRACERS_names = /* Tracer short name */
(PID.TID 0000.0001)               'NH4'
(PID.TID 0000.0001)     ;
(PID.TID 0000.0001) PTRACERS_long_names = /* Tracer long name */
(PID.TID 0000.0001)               ''
(PID.TID 0000.0001)     ;
(PID.TID 0000.0001) PTRACERS_ioLabel = /* tracer IO Label */
(PID.TID 0000.0001)               '02'
(PID.TID 0000.0001)     ;
(PID.TID 0000.0001) PTRACERS_advScheme = /* Advection Scheme */
(PID.TID 0000.0001)                      33
(PID.TID 0000.0001)     ;
(PID.TID 0000.0001) PTRACERS_SOM_Advection = /* tracer uses SOM advection scheme */
(PID.TID 0000.0001)                   F
(PID.TID 0000.0001)     ;
(PID.TID 0000.0001) PTRACERS_ImplVertAdv = /* implicit vert. advection flag */
(PID.TID 0000.0001)                   F
(PID.TID 0000.0001)     ;
(PID.TID 0000.0001) PTRACERS_MultiDimAdv = /* tracer uses Multi-Dim advection */
(PID.TID 0000.0001)                   T
(PID.TID 0000.0001)     ;
(PID.TID 0000.0001) PTRACERS_AdamsBashGtr = /* apply AB on tracer tendency */
(PID.TID 0000.0001)                   F
(PID.TID 0000.0001)     ;
(PID.TID 0000.0001) PTRACERS_AdamsBash_Tr = /* apply AB on passive tracer */
(PID.TID 0000.0001)                   F
(PID.TID 0000.0001)     ;
(PID.TID 0000.0001) PTRACERS_diffKh = /* Laplacian Diffusivity */
(PID.TID 0000.0001)                 0.000000000000000E+00
(PID.TID 0000.0001)     ;
(PID.TID 0000.0001) PTRACERS_diffK4 = /* Biharmonic Diffusivity */
(PID.TID 0000.0001)                 0.000000000000000E+00
(PID.TID 0000.0001)     ;
(PID.TID 0000.0001) PTRACERS_diffKrNr = /* Vertical Diffusivity */
(PID.TID 0000.0001)    35 @  1.000000000000000E-05              /* K =  1: 35 */
(PID.TID 0000.0001)     ;
(PID.TID 0000.0001) PTRACERS_useGMRedi = /* apply GM-Redi */
(PID.TID 0000.0001)                   F
(PID.TID 0000.0001)     ;
(PID.TID 0000.0001) PTRACERS_useDWNSLP = /* apply DOWN-SLOPE Flow */
(PID.TID 0000.0001)                   F
(PID.TID 0000.0001)     ;
(PID.TID 0000.0001) PTRACERS_useKPP = /* apply KPP scheme */
(PID.TID 0000.0001)                   F
(PID.TID 0000.0001)     ;
(PID.TID 0000.0001) PTRACERS_ref = /* Reference vertical profile */
(PID.TID 0000.0001)    35 @  0.000000000000000E+00              /* K =  1: 35 */
(PID.TID 0000.0001)     ;
(PID.TID 0000.0001) PTRACERS_EvPrRn =/* tracer conc. in Evap. & Rain */
(PID.TID 0000.0001)                 1.234567000000000E+05
(PID.TID 0000.0001)     ;
(PID.TID 0000.0001)  -----------------------------------
(PID.TID 0000.0001)  tracer number :    3
(PID.TID 0000.0001) PTRACERS_names = /* Tracer short name */
(PID.TID 0000.0001)               'NO2'
(PID.TID 0000.0001)     ;
(PID.TID 0000.0001) PTRACERS_long_names = /* Tracer long name */
(PID.TID 0000.0001)               ''
(PID.TID 0000.0001)     ;
(PID.TID 0000.0001) PTRACERS_ioLabel = /* tracer IO Label */
(PID.TID 0000.0001)               '03'
(PID.TID 0000.0001)     ;
(PID.TID 0000.0001) PTRACERS_advScheme = /* Advection Scheme */
(PID.TID 0000.0001)                      33
(PID.TID 0000.0001)     ;
(PID.TID 0000.0001) PTRACERS_SOM_Advection = /* tracer uses SOM advection scheme */
(PID.TID 0000.0001)                   F
(PID.TID 0000.0001)     ;
(PID.TID 0000.0001) PTRACERS_ImplVertAdv = /* implicit vert. advection flag */
(PID.TID 0000.0001)                   F
(PID.TID 0000.0001)     ;
(PID.TID 0000.0001) PTRACERS_MultiDimAdv = /* tracer uses Multi-Dim advection */
(PID.TID 0000.0001)                   T
(PID.TID 0000.0001)     ;
(PID.TID 0000.0001) PTRACERS_AdamsBashGtr = /* apply AB on tracer tendency */
(PID.TID 0000.0001)                   F
(PID.TID 0000.0001)     ;
(PID.TID 0000.0001) PTRACERS_AdamsBash_Tr = /* apply AB on passive tracer */
(PID.TID 0000.0001)                   F
(PID.TID 0000.0001)     ;
(PID.TID 0000.0001) PTRACERS_diffKh = /* Laplacian Diffusivity */
(PID.TID 0000.0001)                 0.000000000000000E+00
(PID.TID 0000.0001)     ;
(PID.TID 0000.0001) PTRACERS_diffK4 = /* Biharmonic Diffusivity */
(PID.TID 0000.0001)                 0.000000000000000E+00
(PID.TID 0000.0001)     ;
(PID.TID 0000.0001) PTRACERS_diffKrNr = /* Vertical Diffusivity */
(PID.TID 0000.0001)    35 @  1.000000000000000E-05              /* K =  1: 35 */
(PID.TID 0000.0001)     ;
(PID.TID 0000.0001) PTRACERS_useGMRedi = /* apply GM-Redi */
(PID.TID 0000.0001)                   F
(PID.TID 0000.0001)     ;
(PID.TID 0000.0001) PTRACERS_useDWNSLP = /* apply DOWN-SLOPE Flow */
(PID.TID 0000.0001)                   F
(PID.TID 0000.0001)     ;
(PID.TID 0000.0001) PTRACERS_useKPP = /* apply KPP scheme */
(PID.TID 0000.0001)                   F
(PID.TID 0000.0001)     ;
(PID.TID 0000.0001) PTRACERS_ref = /* Reference vertical profile */
(PID.TID 0000.0001)    35 @  0.000000000000000E+00              /* K =  1: 35 */
(PID.TID 0000.0001)     ;
(PID.TID 0000.0001) PTRACERS_EvPrRn =/* tracer conc. in Evap. & Rain */
(PID.TID 0000.0001)                 1.234567000000000E+05
(PID.TID 0000.0001)     ;
(PID.TID 0000.0001)  -----------------------------------
(PID.TID 0000.0001)  tracer number :    4
(PID.TID 0000.0001) PTRACERS_names = /* Tracer short name */
(PID.TID 0000.0001)               'NO3'
(PID.TID 0000.0001)     ;
(PID.TID 0000.0001) PTRACERS_long_names = /* Tracer long name */
(PID.TID 0000.0001)               ''
(PID.TID 0000.0001)     ;
(PID.TID 0000.0001) PTRACERS_ioLabel = /* tracer IO Label */
(PID.TID 0000.0001)               '04'
(PID.TID 0000.0001)     ;
(PID.TID 0000.0001) PTRACERS_advScheme = /* Advection Scheme */
(PID.TID 0000.0001)                      33
(PID.TID 0000.0001)     ;
(PID.TID 0000.0001) PTRACERS_SOM_Advection = /* tracer uses SOM advection scheme */
(PID.TID 0000.0001)                   F
(PID.TID 0000.0001)     ;
(PID.TID 0000.0001) PTRACERS_ImplVertAdv = /* implicit vert. advection flag */
(PID.TID 0000.0001)                   F
(PID.TID 0000.0001)     ;
(PID.TID 0000.0001) PTRACERS_MultiDimAdv = /* tracer uses Multi-Dim advection */
(PID.TID 0000.0001)                   T
(PID.TID 0000.0001)     ;
(PID.TID 0000.0001) PTRACERS_AdamsBashGtr = /* apply AB on tracer tendency */
(PID.TID 0000.0001)                   F
(PID.TID 0000.0001)     ;
(PID.TID 0000.0001) PTRACERS_AdamsBash_Tr = /* apply AB on passive tracer */
(PID.TID 0000.0001)                   F
(PID.TID 0000.0001)     ;
(PID.TID 0000.0001) PTRACERS_diffKh = /* Laplacian Diffusivity */
(PID.TID 0000.0001)                 0.000000000000000E+00
(PID.TID 0000.0001)     ;
(PID.TID 0000.0001) PTRACERS_diffK4 = /* Biharmonic Diffusivity */
(PID.TID 0000.0001)                 0.000000000000000E+00
(PID.TID 0000.0001)     ;
(PID.TID 0000.0001) PTRACERS_diffKrNr = /* Vertical Diffusivity */
(PID.TID 0000.0001)    35 @  1.000000000000000E-05              /* K =  1: 35 */
(PID.TID 0000.0001)     ;
(PID.TID 0000.0001) PTRACERS_useGMRedi = /* apply GM-Redi */
(PID.TID 0000.0001)                   F
(PID.TID 0000.0001)     ;
(PID.TID 0000.0001) PTRACERS_useDWNSLP = /* apply DOWN-SLOPE Flow */
(PID.TID 0000.0001)                   F
(PID.TID 0000.0001)     ;
(PID.TID 0000.0001) PTRACERS_useKPP = /* apply KPP scheme */
(PID.TID 0000.0001)                   F
(PID.TID 0000.0001)     ;
(PID.TID 0000.0001) PTRACERS_ref = /* Reference vertical profile */
(PID.TID 0000.0001)    35 @  0.000000000000000E+00              /* K =  1: 35 */
(PID.TID 0000.0001)     ;
(PID.TID 0000.0001) PTRACERS_EvPrRn =/* tracer conc. in Evap. & Rain */
(PID.TID 0000.0001)                 1.234567000000000E+05
(PID.TID 0000.0001)     ;
(PID.TID 0000.0001)  -----------------------------------
(PID.TID 0000.0001)  tracer number :    5
(PID.TID 0000.0001) PTRACERS_names = /* Tracer short name */
(PID.TID 0000.0001)               'PO4'
(PID.TID 0000.0001)     ;
(PID.TID 0000.0001) PTRACERS_long_names = /* Tracer long name */
(PID.TID 0000.0001)               ''
(PID.TID 0000.0001)     ;
(PID.TID 0000.0001) PTRACERS_ioLabel = /* tracer IO Label */
(PID.TID 0000.0001)               '05'
(PID.TID 0000.0001)     ;
(PID.TID 0000.0001) PTRACERS_advScheme = /* Advection Scheme */
(PID.TID 0000.0001)                      33
(PID.TID 0000.0001)     ;
(PID.TID 0000.0001) PTRACERS_SOM_Advection = /* tracer uses SOM advection scheme */
(PID.TID 0000.0001)                   F
(PID.TID 0000.0001)     ;
(PID.TID 0000.0001) PTRACERS_ImplVertAdv = /* implicit vert. advection flag */
(PID.TID 0000.0001)                   F
(PID.TID 0000.0001)     ;
(PID.TID 0000.0001) PTRACERS_MultiDimAdv = /* tracer uses Multi-Dim advection */
(PID.TID 0000.0001)                   T
(PID.TID 0000.0001)     ;
(PID.TID 0000.0001) PTRACERS_AdamsBashGtr = /* apply AB on tracer tendency */
(PID.TID 0000.0001)                   F
(PID.TID 0000.0001)     ;
(PID.TID 0000.0001) PTRACERS_AdamsBash_Tr = /* apply AB on passive tracer */
(PID.TID 0000.0001)                   F
(PID.TID 0000.0001)     ;
(PID.TID 0000.0001) PTRACERS_diffKh = /* Laplacian Diffusivity */
(PID.TID 0000.0001)                 0.000000000000000E+00
(PID.TID 0000.0001)     ;
(PID.TID 0000.0001) PTRACERS_diffK4 = /* Biharmonic Diffusivity */
(PID.TID 0000.0001)                 0.000000000000000E+00
(PID.TID 0000.0001)     ;
(PID.TID 0000.0001) PTRACERS_diffKrNr = /* Vertical Diffusivity */
(PID.TID 0000.0001)    35 @  1.000000000000000E-05              /* K =  1: 35 */
(PID.TID 0000.0001)     ;
(PID.TID 0000.0001) PTRACERS_useGMRedi = /* apply GM-Redi */
(PID.TID 0000.0001)                   F
(PID.TID 0000.0001)     ;
(PID.TID 0000.0001) PTRACERS_useDWNSLP = /* apply DOWN-SLOPE Flow */
(PID.TID 0000.0001)                   F
(PID.TID 0000.0001)     ;
(PID.TID 0000.0001) PTRACERS_useKPP = /* apply KPP scheme */
(PID.TID 0000.0001)                   F
(PID.TID 0000.0001)     ;
(PID.TID 0000.0001) PTRACERS_ref = /* Reference vertical profile */
(PID.TID 0000.0001)    35 @  0.000000000000000E+00              /* K =  1: 35 */
(PID.TID 0000.0001)     ;
(PID.TID 0000.0001) PTRACERS_EvPrRn =/* tracer conc. in Evap. & Rain */
(PID.TID 0000.0001)                 1.234567000000000E+05
(PID.TID 0000.0001)     ;
(PID.TID 0000.0001)  -----------------------------------
(PID.TID 0000.0001)  tracer number :    6
(PID.TID 0000.0001) PTRACERS_names = /* Tracer short name */
(PID.TID 0000.0001)               'SiO2'
(PID.TID 0000.0001)     ;
(PID.TID 0000.0001) PTRACERS_long_names = /* Tracer long name */
(PID.TID 0000.0001)               ''
(PID.TID 0000.0001)     ;
(PID.TID 0000.0001) PTRACERS_ioLabel = /* tracer IO Label */
(PID.TID 0000.0001)               '06'
(PID.TID 0000.0001)     ;
(PID.TID 0000.0001) PTRACERS_advScheme = /* Advection Scheme */
(PID.TID 0000.0001)                      33
(PID.TID 0000.0001)     ;
(PID.TID 0000.0001) PTRACERS_SOM_Advection = /* tracer uses SOM advection scheme */
(PID.TID 0000.0001)                   F
(PID.TID 0000.0001)     ;
(PID.TID 0000.0001) PTRACERS_ImplVertAdv = /* implicit vert. advection flag */
(PID.TID 0000.0001)                   F
(PID.TID 0000.0001)     ;
(PID.TID 0000.0001) PTRACERS_MultiDimAdv = /* tracer uses Multi-Dim advection */
(PID.TID 0000.0001)                   T
(PID.TID 0000.0001)     ;
(PID.TID 0000.0001) PTRACERS_AdamsBashGtr = /* apply AB on tracer tendency */
(PID.TID 0000.0001)                   F
(PID.TID 0000.0001)     ;
(PID.TID 0000.0001) PTRACERS_AdamsBash_Tr = /* apply AB on passive tracer */
(PID.TID 0000.0001)                   F
(PID.TID 0000.0001)     ;
(PID.TID 0000.0001) PTRACERS_diffKh = /* Laplacian Diffusivity */
(PID.TID 0000.0001)                 0.000000000000000E+00
(PID.TID 0000.0001)     ;
(PID.TID 0000.0001) PTRACERS_diffK4 = /* Biharmonic Diffusivity */
(PID.TID 0000.0001)                 0.000000000000000E+00
(PID.TID 0000.0001)     ;
(PID.TID 0000.0001) PTRACERS_diffKrNr = /* Vertical Diffusivity */
(PID.TID 0000.0001)    35 @  1.000000000000000E-05              /* K =  1: 35 */
(PID.TID 0000.0001)     ;
(PID.TID 0000.0001) PTRACERS_useGMRedi = /* apply GM-Redi */
(PID.TID 0000.0001)                   F
(PID.TID 0000.0001)     ;
(PID.TID 0000.0001) PTRACERS_useDWNSLP = /* apply DOWN-SLOPE Flow */
(PID.TID 0000.0001)                   F
(PID.TID 0000.0001)     ;
(PID.TID 0000.0001) PTRACERS_useKPP = /* apply KPP scheme */
(PID.TID 0000.0001)                   F
(PID.TID 0000.0001)     ;
(PID.TID 0000.0001) PTRACERS_ref = /* Reference vertical profile */
(PID.TID 0000.0001)    35 @  0.000000000000000E+00              /* K =  1: 35 */
(PID.TID 0000.0001)     ;
(PID.TID 0000.0001) PTRACERS_EvPrRn =/* tracer conc. in Evap. & Rain */
(PID.TID 0000.0001)                 1.234567000000000E+05
(PID.TID 0000.0001)     ;
(PID.TID 0000.0001)  -----------------------------------
(PID.TID 0000.0001)  tracer number :    7
(PID.TID 0000.0001) PTRACERS_names = /* Tracer short name */
(PID.TID 0000.0001)               'FeT'
(PID.TID 0000.0001)     ;
(PID.TID 0000.0001) PTRACERS_long_names = /* Tracer long name */
(PID.TID 0000.0001)               ''
(PID.TID 0000.0001)     ;
(PID.TID 0000.0001) PTRACERS_ioLabel = /* tracer IO Label */
(PID.TID 0000.0001)               '07'
(PID.TID 0000.0001)     ;
(PID.TID 0000.0001) PTRACERS_advScheme = /* Advection Scheme */
(PID.TID 0000.0001)                      33
(PID.TID 0000.0001)     ;
(PID.TID 0000.0001) PTRACERS_SOM_Advection = /* tracer uses SOM advection scheme */
(PID.TID 0000.0001)                   F
(PID.TID 0000.0001)     ;
(PID.TID 0000.0001) PTRACERS_ImplVertAdv = /* implicit vert. advection flag */
(PID.TID 0000.0001)                   F
(PID.TID 0000.0001)     ;
(PID.TID 0000.0001) PTRACERS_MultiDimAdv = /* tracer uses Multi-Dim advection */
(PID.TID 0000.0001)                   T
(PID.TID 0000.0001)     ;
(PID.TID 0000.0001) PTRACERS_AdamsBashGtr = /* apply AB on tracer tendency */
(PID.TID 0000.0001)                   F
(PID.TID 0000.0001)     ;
(PID.TID 0000.0001) PTRACERS_AdamsBash_Tr = /* apply AB on passive tracer */
(PID.TID 0000.0001)                   F
(PID.TID 0000.0001)     ;
(PID.TID 0000.0001) PTRACERS_diffKh = /* Laplacian Diffusivity */
(PID.TID 0000.0001)                 0.000000000000000E+00
(PID.TID 0000.0001)     ;
(PID.TID 0000.0001) PTRACERS_diffK4 = /* Biharmonic Diffusivity */
(PID.TID 0000.0001)                 0.000000000000000E+00
(PID.TID 0000.0001)     ;
(PID.TID 0000.0001) PTRACERS_diffKrNr = /* Vertical Diffusivity */
(PID.TID 0000.0001)    35 @  1.000000000000000E-05              /* K =  1: 35 */
(PID.TID 0000.0001)     ;
(PID.TID 0000.0001) PTRACERS_useGMRedi = /* apply GM-Redi */
(PID.TID 0000.0001)                   F
(PID.TID 0000.0001)     ;
(PID.TID 0000.0001) PTRACERS_useDWNSLP = /* apply DOWN-SLOPE Flow */
(PID.TID 0000.0001)                   F
(PID.TID 0000.0001)     ;
(PID.TID 0000.0001) PTRACERS_useKPP = /* apply KPP scheme */
(PID.TID 0000.0001)                   F
(PID.TID 0000.0001)     ;
(PID.TID 0000.0001) PTRACERS_ref = /* Reference vertical profile */
(PID.TID 0000.0001)    35 @  0.000000000000000E+00              /* K =  1: 35 */
(PID.TID 0000.0001)     ;
(PID.TID 0000.0001) PTRACERS_EvPrRn =/* tracer conc. in Evap. & Rain */
(PID.TID 0000.0001)                 1.234567000000000E+05
(PID.TID 0000.0001)     ;
(PID.TID 0000.0001)  -----------------------------------
(PID.TID 0000.0001)  tracer number :    8
(PID.TID 0000.0001) PTRACERS_names = /* Tracer short name */
(PID.TID 0000.0001)               'DOC'
(PID.TID 0000.0001)     ;
(PID.TID 0000.0001) PTRACERS_long_names = /* Tracer long name */
(PID.TID 0000.0001)               ''
(PID.TID 0000.0001)     ;
(PID.TID 0000.0001) PTRACERS_ioLabel = /* tracer IO Label */
(PID.TID 0000.0001)               '08'
(PID.TID 0000.0001)     ;
(PID.TID 0000.0001) PTRACERS_advScheme = /* Advection Scheme */
(PID.TID 0000.0001)                      33
(PID.TID 0000.0001)     ;
(PID.TID 0000.0001) PTRACERS_SOM_Advection = /* tracer uses SOM advection scheme */
(PID.TID 0000.0001)                   F
(PID.TID 0000.0001)     ;
(PID.TID 0000.0001) PTRACERS_ImplVertAdv = /* implicit vert. advection flag */
(PID.TID 0000.0001)                   F
(PID.TID 0000.0001)     ;
(PID.TID 0000.0001) PTRACERS_MultiDimAdv = /* tracer uses Multi-Dim advection */
(PID.TID 0000.0001)                   T
(PID.TID 0000.0001)     ;
(PID.TID 0000.0001) PTRACERS_AdamsBashGtr = /* apply AB on tracer tendency */
(PID.TID 0000.0001)                   F
(PID.TID 0000.0001)     ;
(PID.TID 0000.0001) PTRACERS_AdamsBash_Tr = /* apply AB on passive tracer */
(PID.TID 0000.0001)                   F
(PID.TID 0000.0001)     ;
(PID.TID 0000.0001) PTRACERS_diffKh = /* Laplacian Diffusivity */
(PID.TID 0000.0001)                 0.000000000000000E+00
(PID.TID 0000.0001)     ;
(PID.TID 0000.0001) PTRACERS_diffK4 = /* Biharmonic Diffusivity */
(PID.TID 0000.0001)                 0.000000000000000E+00
(PID.TID 0000.0001)     ;
(PID.TID 0000.0001) PTRACERS_diffKrNr = /* Vertical Diffusivity */
(PID.TID 0000.0001)    35 @  1.000000000000000E-05              /* K =  1: 35 */
(PID.TID 0000.0001)     ;
(PID.TID 0000.0001) PTRACERS_useGMRedi = /* apply GM-Redi */
(PID.TID 0000.0001)                   F
(PID.TID 0000.0001)     ;
(PID.TID 0000.0001) PTRACERS_useDWNSLP = /* apply DOWN-SLOPE Flow */
(PID.TID 0000.0001)                   F
(PID.TID 0000.0001)     ;
(PID.TID 0000.0001) PTRACERS_useKPP = /* apply KPP scheme */
(PID.TID 0000.0001)                   F
(PID.TID 0000.0001)     ;
(PID.TID 0000.0001) PTRACERS_ref = /* Reference vertical profile */
(PID.TID 0000.0001)    35 @  0.000000000000000E+00              /* K =  1: 35 */
(PID.TID 0000.0001)     ;
(PID.TID 0000.0001) PTRACERS_EvPrRn =/* tracer conc. in Evap. & Rain */
(PID.TID 0000.0001)                 1.234567000000000E+05
(PID.TID 0000.0001)     ;
(PID.TID 0000.0001)  -----------------------------------
(PID.TID 0000.0001)  tracer number :    9
(PID.TID 0000.0001) PTRACERS_names = /* Tracer short name */
(PID.TID 0000.0001)               'DON'
(PID.TID 0000.0001)     ;
(PID.TID 0000.0001) PTRACERS_long_names = /* Tracer long name */
(PID.TID 0000.0001)               ''
(PID.TID 0000.0001)     ;
(PID.TID 0000.0001) PTRACERS_ioLabel = /* tracer IO Label */
(PID.TID 0000.0001)               '09'
(PID.TID 0000.0001)     ;
(PID.TID 0000.0001) PTRACERS_advScheme = /* Advection Scheme */
(PID.TID 0000.0001)                      33
(PID.TID 0000.0001)     ;
(PID.TID 0000.0001) PTRACERS_SOM_Advection = /* tracer uses SOM advection scheme */
(PID.TID 0000.0001)                   F
(PID.TID 0000.0001)     ;
(PID.TID 0000.0001) PTRACERS_ImplVertAdv = /* implicit vert. advection flag */
(PID.TID 0000.0001)                   F
(PID.TID 0000.0001)     ;
(PID.TID 0000.0001) PTRACERS_MultiDimAdv = /* tracer uses Multi-Dim advection */
(PID.TID 0000.0001)                   T
(PID.TID 0000.0001)     ;
(PID.TID 0000.0001) PTRACERS_AdamsBashGtr = /* apply AB on tracer tendency */
(PID.TID 0000.0001)                   F
(PID.TID 0000.0001)     ;
(PID.TID 0000.0001) PTRACERS_AdamsBash_Tr = /* apply AB on passive tracer */
(PID.TID 0000.0001)                   F
(PID.TID 0000.0001)     ;
(PID.TID 0000.0001) PTRACERS_diffKh = /* Laplacian Diffusivity */
(PID.TID 0000.0001)                 0.000000000000000E+00
(PID.TID 0000.0001)     ;
(PID.TID 0000.0001) PTRACERS_diffK4 = /* Biharmonic Diffusivity */
(PID.TID 0000.0001)                 0.000000000000000E+00
(PID.TID 0000.0001)     ;
(PID.TID 0000.0001) PTRACERS_diffKrNr = /* Vertical Diffusivity */
(PID.TID 0000.0001)    35 @  1.000000000000000E-05              /* K =  1: 35 */
(PID.TID 0000.0001)     ;
(PID.TID 0000.0001) PTRACERS_useGMRedi = /* apply GM-Redi */
(PID.TID 0000.0001)                   F
(PID.TID 0000.0001)     ;
(PID.TID 0000.0001) PTRACERS_useDWNSLP = /* apply DOWN-SLOPE Flow */
(PID.TID 0000.0001)                   F
(PID.TID 0000.0001)     ;
(PID.TID 0000.0001) PTRACERS_useKPP = /* apply KPP scheme */
(PID.TID 0000.0001)                   F
(PID.TID 0000.0001)     ;
(PID.TID 0000.0001) PTRACERS_ref = /* Reference vertical profile */
(PID.TID 0000.0001)    35 @  0.000000000000000E+00              /* K =  1: 35 */
(PID.TID 0000.0001)     ;
(PID.TID 0000.0001) PTRACERS_EvPrRn =/* tracer conc. in Evap. & Rain */
(PID.TID 0000.0001)                 1.234567000000000E+05
(PID.TID 0000.0001)     ;
(PID.TID 0000.0001)  -----------------------------------
(PID.TID 0000.0001)  tracer number :   10
(PID.TID 0000.0001) PTRACERS_names = /* Tracer short name */
(PID.TID 0000.0001)               'DOP'
(PID.TID 0000.0001)     ;
(PID.TID 0000.0001) PTRACERS_long_names = /* Tracer long name */
(PID.TID 0000.0001)               ''
(PID.TID 0000.0001)     ;
(PID.TID 0000.0001) PTRACERS_ioLabel = /* tracer IO Label */
(PID.TID 0000.0001)               '10'
(PID.TID 0000.0001)     ;
(PID.TID 0000.0001) PTRACERS_advScheme = /* Advection Scheme */
(PID.TID 0000.0001)                      33
(PID.TID 0000.0001)     ;
(PID.TID 0000.0001) PTRACERS_SOM_Advection = /* tracer uses SOM advection scheme */
(PID.TID 0000.0001)                   F
(PID.TID 0000.0001)     ;
(PID.TID 0000.0001) PTRACERS_ImplVertAdv = /* implicit vert. advection flag */
(PID.TID 0000.0001)                   F
(PID.TID 0000.0001)     ;
(PID.TID 0000.0001) PTRACERS_MultiDimAdv = /* tracer uses Multi-Dim advection */
(PID.TID 0000.0001)                   T
(PID.TID 0000.0001)     ;
(PID.TID 0000.0001) PTRACERS_AdamsBashGtr = /* apply AB on tracer tendency */
(PID.TID 0000.0001)                   F
(PID.TID 0000.0001)     ;
(PID.TID 0000.0001) PTRACERS_AdamsBash_Tr = /* apply AB on passive tracer */
(PID.TID 0000.0001)                   F
(PID.TID 0000.0001)     ;
(PID.TID 0000.0001) PTRACERS_diffKh = /* Laplacian Diffusivity */
(PID.TID 0000.0001)                 0.000000000000000E+00
(PID.TID 0000.0001)     ;
(PID.TID 0000.0001) PTRACERS_diffK4 = /* Biharmonic Diffusivity */
(PID.TID 0000.0001)                 0.000000000000000E+00
(PID.TID 0000.0001)     ;
(PID.TID 0000.0001) PTRACERS_diffKrNr = /* Vertical Diffusivity */
(PID.TID 0000.0001)    35 @  1.000000000000000E-05              /* K =  1: 35 */
(PID.TID 0000.0001)     ;
(PID.TID 0000.0001) PTRACERS_useGMRedi = /* apply GM-Redi */
(PID.TID 0000.0001)                   F
(PID.TID 0000.0001)     ;
(PID.TID 0000.0001) PTRACERS_useDWNSLP = /* apply DOWN-SLOPE Flow */
(PID.TID 0000.0001)                   F
(PID.TID 0000.0001)     ;
(PID.TID 0000.0001) PTRACERS_useKPP = /* apply KPP scheme */
(PID.TID 0000.0001)                   F
(PID.TID 0000.0001)     ;
(PID.TID 0000.0001) PTRACERS_ref = /* Reference vertical profile */
(PID.TID 0000.0001)    35 @  0.000000000000000E+00              /* K =  1: 35 */
(PID.TID 0000.0001)     ;
(PID.TID 0000.0001) PTRACERS_EvPrRn =/* tracer conc. in Evap. & Rain */
(PID.TID 0000.0001)                 1.234567000000000E+05
(PID.TID 0000.0001)     ;
(PID.TID 0000.0001)  -----------------------------------
(PID.TID 0000.0001)  tracer number :   11
(PID.TID 0000.0001) PTRACERS_names = /* Tracer short name */
(PID.TID 0000.0001)               'DOFe'
(PID.TID 0000.0001)     ;
(PID.TID 0000.0001) PTRACERS_long_names = /* Tracer long name */
(PID.TID 0000.0001)               ''
(PID.TID 0000.0001)     ;
(PID.TID 0000.0001) PTRACERS_ioLabel = /* tracer IO Label */
(PID.TID 0000.0001)               '11'
(PID.TID 0000.0001)     ;
(PID.TID 0000.0001) PTRACERS_advScheme = /* Advection Scheme */
(PID.TID 0000.0001)                      33
(PID.TID 0000.0001)     ;
(PID.TID 0000.0001) PTRACERS_SOM_Advection = /* tracer uses SOM advection scheme */
(PID.TID 0000.0001)                   F
(PID.TID 0000.0001)     ;
(PID.TID 0000.0001) PTRACERS_ImplVertAdv = /* implicit vert. advection flag */
(PID.TID 0000.0001)                   F
(PID.TID 0000.0001)     ;
(PID.TID 0000.0001) PTRACERS_MultiDimAdv = /* tracer uses Multi-Dim advection */
(PID.TID 0000.0001)                   T
(PID.TID 0000.0001)     ;
(PID.TID 0000.0001) PTRACERS_AdamsBashGtr = /* apply AB on tracer tendency */
(PID.TID 0000.0001)                   F
(PID.TID 0000.0001)     ;
(PID.TID 0000.0001) PTRACERS_AdamsBash_Tr = /* apply AB on passive tracer */
(PID.TID 0000.0001)                   F
(PID.TID 0000.0001)     ;
(PID.TID 0000.0001) PTRACERS_diffKh = /* Laplacian Diffusivity */
(PID.TID 0000.0001)                 0.000000000000000E+00
(PID.TID 0000.0001)     ;
(PID.TID 0000.0001) PTRACERS_diffK4 = /* Biharmonic Diffusivity */
(PID.TID 0000.0001)                 0.000000000000000E+00
(PID.TID 0000.0001)     ;
(PID.TID 0000.0001) PTRACERS_diffKrNr = /* Vertical Diffusivity */
(PID.TID 0000.0001)    35 @  1.000000000000000E-05              /* K =  1: 35 */
(PID.TID 0000.0001)     ;
(PID.TID 0000.0001) PTRACERS_useGMRedi = /* apply GM-Redi */
(PID.TID 0000.0001)                   F
(PID.TID 0000.0001)     ;
(PID.TID 0000.0001) PTRACERS_useDWNSLP = /* apply DOWN-SLOPE Flow */
(PID.TID 0000.0001)                   F
(PID.TID 0000.0001)     ;
(PID.TID 0000.0001) PTRACERS_useKPP = /* apply KPP scheme */
(PID.TID 0000.0001)                   F
(PID.TID 0000.0001)     ;
(PID.TID 0000.0001) PTRACERS_ref = /* Reference vertical profile */
(PID.TID 0000.0001)    35 @  0.000000000000000E+00              /* K =  1: 35 */
(PID.TID 0000.0001)     ;
(PID.TID 0000.0001) PTRACERS_EvPrRn =/* tracer conc. in Evap. & Rain */
(PID.TID 0000.0001)                 1.234567000000000E+05
(PID.TID 0000.0001)     ;
(PID.TID 0000.0001)  -----------------------------------
(PID.TID 0000.0001)  tracer number :   12
(PID.TID 0000.0001) PTRACERS_names = /* Tracer short name */
(PID.TID 0000.0001)               'POC'
(PID.TID 0000.0001)     ;
(PID.TID 0000.0001) PTRACERS_long_names = /* Tracer long name */
(PID.TID 0000.0001)               ''
(PID.TID 0000.0001)     ;
(PID.TID 0000.0001) PTRACERS_ioLabel = /* tracer IO Label */
(PID.TID 0000.0001)               '12'
(PID.TID 0000.0001)     ;
(PID.TID 0000.0001) PTRACERS_advScheme = /* Advection Scheme */
(PID.TID 0000.0001)                      33
(PID.TID 0000.0001)     ;
(PID.TID 0000.0001) PTRACERS_SOM_Advection = /* tracer uses SOM advection scheme */
(PID.TID 0000.0001)                   F
(PID.TID 0000.0001)     ;
(PID.TID 0000.0001) PTRACERS_ImplVertAdv = /* implicit vert. advection flag */
(PID.TID 0000.0001)                   F
(PID.TID 0000.0001)     ;
(PID.TID 0000.0001) PTRACERS_MultiDimAdv = /* tracer uses Multi-Dim advection */
(PID.TID 0000.0001)                   T
(PID.TID 0000.0001)     ;
(PID.TID 0000.0001) PTRACERS_AdamsBashGtr = /* apply AB on tracer tendency */
(PID.TID 0000.0001)                   F
(PID.TID 0000.0001)     ;
(PID.TID 0000.0001) PTRACERS_AdamsBash_Tr = /* apply AB on passive tracer */
(PID.TID 0000.0001)                   F
(PID.TID 0000.0001)     ;
(PID.TID 0000.0001) PTRACERS_diffKh = /* Laplacian Diffusivity */
(PID.TID 0000.0001)                 0.000000000000000E+00
(PID.TID 0000.0001)     ;
(PID.TID 0000.0001) PTRACERS_diffK4 = /* Biharmonic Diffusivity */
(PID.TID 0000.0001)                 0.000000000000000E+00
(PID.TID 0000.0001)     ;
(PID.TID 0000.0001) PTRACERS_diffKrNr = /* Vertical Diffusivity */
(PID.TID 0000.0001)    35 @  1.000000000000000E-05              /* K =  1: 35 */
(PID.TID 0000.0001)     ;
(PID.TID 0000.0001) PTRACERS_useGMRedi = /* apply GM-Redi */
(PID.TID 0000.0001)                   F
(PID.TID 0000.0001)     ;
(PID.TID 0000.0001) PTRACERS_useDWNSLP = /* apply DOWN-SLOPE Flow */
(PID.TID 0000.0001)                   F
(PID.TID 0000.0001)     ;
(PID.TID 0000.0001) PTRACERS_useKPP = /* apply KPP scheme */
(PID.TID 0000.0001)                   F
(PID.TID 0000.0001)     ;
(PID.TID 0000.0001) PTRACERS_ref = /* Reference vertical profile */
(PID.TID 0000.0001)    35 @  0.000000000000000E+00              /* K =  1: 35 */
(PID.TID 0000.0001)     ;
(PID.TID 0000.0001) PTRACERS_EvPrRn =/* tracer conc. in Evap. & Rain */
(PID.TID 0000.0001)                 1.234567000000000E+05
(PID.TID 0000.0001)     ;
(PID.TID 0000.0001)  -----------------------------------
(PID.TID 0000.0001)  tracer number :   13
(PID.TID 0000.0001) PTRACERS_names = /* Tracer short name */
(PID.TID 0000.0001)               'PON'
(PID.TID 0000.0001)     ;
(PID.TID 0000.0001) PTRACERS_long_names = /* Tracer long name */
(PID.TID 0000.0001)               ''
(PID.TID 0000.0001)     ;
(PID.TID 0000.0001) PTRACERS_ioLabel = /* tracer IO Label */
(PID.TID 0000.0001)               '13'
(PID.TID 0000.0001)     ;
(PID.TID 0000.0001) PTRACERS_advScheme = /* Advection Scheme */
(PID.TID 0000.0001)                      33
(PID.TID 0000.0001)     ;
(PID.TID 0000.0001) PTRACERS_SOM_Advection = /* tracer uses SOM advection scheme */
(PID.TID 0000.0001)                   F
(PID.TID 0000.0001)     ;
(PID.TID 0000.0001) PTRACERS_ImplVertAdv = /* implicit vert. advection flag */
(PID.TID 0000.0001)                   F
(PID.TID 0000.0001)     ;
(PID.TID 0000.0001) PTRACERS_MultiDimAdv = /* tracer uses Multi-Dim advection */
(PID.TID 0000.0001)                   T
(PID.TID 0000.0001)     ;
(PID.TID 0000.0001) PTRACERS_AdamsBashGtr = /* apply AB on tracer tendency */
(PID.TID 0000.0001)                   F
(PID.TID 0000.0001)     ;
(PID.TID 0000.0001) PTRACERS_AdamsBash_Tr = /* apply AB on passive tracer */
(PID.TID 0000.0001)                   F
(PID.TID 0000.0001)     ;
(PID.TID 0000.0001) PTRACERS_diffKh = /* Laplacian Diffusivity */
(PID.TID 0000.0001)                 0.000000000000000E+00
(PID.TID 0000.0001)     ;
(PID.TID 0000.0001) PTRACERS_diffK4 = /* Biharmonic Diffusivity */
(PID.TID 0000.0001)                 0.000000000000000E+00
(PID.TID 0000.0001)     ;
(PID.TID 0000.0001) PTRACERS_diffKrNr = /* Vertical Diffusivity */
(PID.TID 0000.0001)    35 @  1.000000000000000E-05              /* K =  1: 35 */
(PID.TID 0000.0001)     ;
(PID.TID 0000.0001) PTRACERS_useGMRedi = /* apply GM-Redi */
(PID.TID 0000.0001)                   F
(PID.TID 0000.0001)     ;
(PID.TID 0000.0001) PTRACERS_useDWNSLP = /* apply DOWN-SLOPE Flow */
(PID.TID 0000.0001)                   F
(PID.TID 0000.0001)     ;
(PID.TID 0000.0001) PTRACERS_useKPP = /* apply KPP scheme */
(PID.TID 0000.0001)                   F
(PID.TID 0000.0001)     ;
(PID.TID 0000.0001) PTRACERS_ref = /* Reference vertical profile */
(PID.TID 0000.0001)    35 @  0.000000000000000E+00              /* K =  1: 35 */
(PID.TID 0000.0001)     ;
(PID.TID 0000.0001) PTRACERS_EvPrRn =/* tracer conc. in Evap. & Rain */
(PID.TID 0000.0001)                 1.234567000000000E+05
(PID.TID 0000.0001)     ;
(PID.TID 0000.0001)  -----------------------------------
(PID.TID 0000.0001)  tracer number :   14
(PID.TID 0000.0001) PTRACERS_names = /* Tracer short name */
(PID.TID 0000.0001)               'POP'
(PID.TID 0000.0001)     ;
(PID.TID 0000.0001) PTRACERS_long_names = /* Tracer long name */
(PID.TID 0000.0001)               ''
(PID.TID 0000.0001)     ;
(PID.TID 0000.0001) PTRACERS_ioLabel = /* tracer IO Label */
(PID.TID 0000.0001)               '14'
(PID.TID 0000.0001)     ;
(PID.TID 0000.0001) PTRACERS_advScheme = /* Advection Scheme */
(PID.TID 0000.0001)                      33
(PID.TID 0000.0001)     ;
(PID.TID 0000.0001) PTRACERS_SOM_Advection = /* tracer uses SOM advection scheme */
(PID.TID 0000.0001)                   F
(PID.TID 0000.0001)     ;
(PID.TID 0000.0001) PTRACERS_ImplVertAdv = /* implicit vert. advection flag */
(PID.TID 0000.0001)                   F
(PID.TID 0000.0001)     ;
(PID.TID 0000.0001) PTRACERS_MultiDimAdv = /* tracer uses Multi-Dim advection */
(PID.TID 0000.0001)                   T
(PID.TID 0000.0001)     ;
(PID.TID 0000.0001) PTRACERS_AdamsBashGtr = /* apply AB on tracer tendency */
(PID.TID 0000.0001)                   F
(PID.TID 0000.0001)     ;
(PID.TID 0000.0001) PTRACERS_AdamsBash_Tr = /* apply AB on passive tracer */
(PID.TID 0000.0001)                   F
(PID.TID 0000.0001)     ;
(PID.TID 0000.0001) PTRACERS_diffKh = /* Laplacian Diffusivity */
(PID.TID 0000.0001)                 0.000000000000000E+00
(PID.TID 0000.0001)     ;
(PID.TID 0000.0001) PTRACERS_diffK4 = /* Biharmonic Diffusivity */
(PID.TID 0000.0001)                 0.000000000000000E+00
(PID.TID 0000.0001)     ;
(PID.TID 0000.0001) PTRACERS_diffKrNr = /* Vertical Diffusivity */
(PID.TID 0000.0001)    35 @  1.000000000000000E-05              /* K =  1: 35 */
(PID.TID 0000.0001)     ;
(PID.TID 0000.0001) PTRACERS_useGMRedi = /* apply GM-Redi */
(PID.TID 0000.0001)                   F
(PID.TID 0000.0001)     ;
(PID.TID 0000.0001) PTRACERS_useDWNSLP = /* apply DOWN-SLOPE Flow */
(PID.TID 0000.0001)                   F
(PID.TID 0000.0001)     ;
(PID.TID 0000.0001) PTRACERS_useKPP = /* apply KPP scheme */
(PID.TID 0000.0001)                   F
(PID.TID 0000.0001)     ;
(PID.TID 0000.0001) PTRACERS_ref = /* Reference vertical profile */
(PID.TID 0000.0001)    35 @  0.000000000000000E+00              /* K =  1: 35 */
(PID.TID 0000.0001)     ;
(PID.TID 0000.0001) PTRACERS_EvPrRn =/* tracer conc. in Evap. & Rain */
(PID.TID 0000.0001)                 1.234567000000000E+05
(PID.TID 0000.0001)     ;
(PID.TID 0000.0001)  -----------------------------------
(PID.TID 0000.0001)  tracer number :   15
(PID.TID 0000.0001) PTRACERS_names = /* Tracer short name */
(PID.TID 0000.0001)               'POSi'
(PID.TID 0000.0001)     ;
(PID.TID 0000.0001) PTRACERS_long_names = /* Tracer long name */
(PID.TID 0000.0001)               ''
(PID.TID 0000.0001)     ;
(PID.TID 0000.0001) PTRACERS_ioLabel = /* tracer IO Label */
(PID.TID 0000.0001)               '15'
(PID.TID 0000.0001)     ;
(PID.TID 0000.0001) PTRACERS_advScheme = /* Advection Scheme */
(PID.TID 0000.0001)                      33
(PID.TID 0000.0001)     ;
(PID.TID 0000.0001) PTRACERS_SOM_Advection = /* tracer uses SOM advection scheme */
(PID.TID 0000.0001)                   F
(PID.TID 0000.0001)     ;
(PID.TID 0000.0001) PTRACERS_ImplVertAdv = /* implicit vert. advection flag */
(PID.TID 0000.0001)                   F
(PID.TID 0000.0001)     ;
(PID.TID 0000.0001) PTRACERS_MultiDimAdv = /* tracer uses Multi-Dim advection */
(PID.TID 0000.0001)                   T
(PID.TID 0000.0001)     ;
(PID.TID 0000.0001) PTRACERS_AdamsBashGtr = /* apply AB on tracer tendency */
(PID.TID 0000.0001)                   F
(PID.TID 0000.0001)     ;
(PID.TID 0000.0001) PTRACERS_AdamsBash_Tr = /* apply AB on passive tracer */
(PID.TID 0000.0001)                   F
(PID.TID 0000.0001)     ;
(PID.TID 0000.0001) PTRACERS_diffKh = /* Laplacian Diffusivity */
(PID.TID 0000.0001)                 0.000000000000000E+00
(PID.TID 0000.0001)     ;
(PID.TID 0000.0001) PTRACERS_diffK4 = /* Biharmonic Diffusivity */
(PID.TID 0000.0001)                 0.000000000000000E+00
(PID.TID 0000.0001)     ;
(PID.TID 0000.0001) PTRACERS_diffKrNr = /* Vertical Diffusivity */
(PID.TID 0000.0001)    35 @  1.000000000000000E-05              /* K =  1: 35 */
(PID.TID 0000.0001)     ;
(PID.TID 0000.0001) PTRACERS_useGMRedi = /* apply GM-Redi */
(PID.TID 0000.0001)                   F
(PID.TID 0000.0001)     ;
(PID.TID 0000.0001) PTRACERS_useDWNSLP = /* apply DOWN-SLOPE Flow */
(PID.TID 0000.0001)                   F
(PID.TID 0000.0001)     ;
(PID.TID 0000.0001) PTRACERS_useKPP = /* apply KPP scheme */
(PID.TID 0000.0001)                   F
(PID.TID 0000.0001)     ;
(PID.TID 0000.0001) PTRACERS_ref = /* Reference vertical profile */
(PID.TID 0000.0001)    35 @  0.000000000000000E+00              /* K =  1: 35 */
(PID.TID 0000.0001)     ;
(PID.TID 0000.0001) PTRACERS_EvPrRn =/* tracer conc. in Evap. & Rain */
(PID.TID 0000.0001)                 1.234567000000000E+05
(PID.TID 0000.0001)     ;
(PID.TID 0000.0001)  -----------------------------------
(PID.TID 0000.0001)  tracer number :   16
(PID.TID 0000.0001) PTRACERS_names = /* Tracer short name */
(PID.TID 0000.0001)               'POFe'
(PID.TID 0000.0001)     ;
(PID.TID 0000.0001) PTRACERS_long_names = /* Tracer long name */
(PID.TID 0000.0001)               ''
(PID.TID 0000.0001)     ;
(PID.TID 0000.0001) PTRACERS_ioLabel = /* tracer IO Label */
(PID.TID 0000.0001)               '16'
(PID.TID 0000.0001)     ;
(PID.TID 0000.0001) PTRACERS_advScheme = /* Advection Scheme */
(PID.TID 0000.0001)                      33
(PID.TID 0000.0001)     ;
(PID.TID 0000.0001) PTRACERS_SOM_Advection = /* tracer uses SOM advection scheme */
(PID.TID 0000.0001)                   F
(PID.TID 0000.0001)     ;
(PID.TID 0000.0001) PTRACERS_ImplVertAdv = /* implicit vert. advection flag */
(PID.TID 0000.0001)                   F
(PID.TID 0000.0001)     ;
(PID.TID 0000.0001) PTRACERS_MultiDimAdv = /* tracer uses Multi-Dim advection */
(PID.TID 0000.0001)                   T
(PID.TID 0000.0001)     ;
(PID.TID 0000.0001) PTRACERS_AdamsBashGtr = /* apply AB on tracer tendency */
(PID.TID 0000.0001)                   F
(PID.TID 0000.0001)     ;
(PID.TID 0000.0001) PTRACERS_AdamsBash_Tr = /* apply AB on passive tracer */
(PID.TID 0000.0001)                   F
(PID.TID 0000.0001)     ;
(PID.TID 0000.0001) PTRACERS_diffKh = /* Laplacian Diffusivity */
(PID.TID 0000.0001)                 0.000000000000000E+00
(PID.TID 0000.0001)     ;
(PID.TID 0000.0001) PTRACERS_diffK4 = /* Biharmonic Diffusivity */
(PID.TID 0000.0001)                 0.000000000000000E+00
(PID.TID 0000.0001)     ;
(PID.TID 0000.0001) PTRACERS_diffKrNr = /* Vertical Diffusivity */
(PID.TID 0000.0001)    35 @  1.000000000000000E-05              /* K =  1: 35 */
(PID.TID 0000.0001)     ;
(PID.TID 0000.0001) PTRACERS_useGMRedi = /* apply GM-Redi */
(PID.TID 0000.0001)                   F
(PID.TID 0000.0001)     ;
(PID.TID 0000.0001) PTRACERS_useDWNSLP = /* apply DOWN-SLOPE Flow */
(PID.TID 0000.0001)                   F
(PID.TID 0000.0001)     ;
(PID.TID 0000.0001) PTRACERS_useKPP = /* apply KPP scheme */
(PID.TID 0000.0001)                   F
(PID.TID 0000.0001)     ;
(PID.TID 0000.0001) PTRACERS_ref = /* Reference vertical profile */
(PID.TID 0000.0001)    35 @  0.000000000000000E+00              /* K =  1: 35 */
(PID.TID 0000.0001)     ;
(PID.TID 0000.0001) PTRACERS_EvPrRn =/* tracer conc. in Evap. & Rain */
(PID.TID 0000.0001)                 1.234567000000000E+05
(PID.TID 0000.0001)     ;
(PID.TID 0000.0001)  -----------------------------------
(PID.TID 0000.0001)  tracer number :   17
(PID.TID 0000.0001) PTRACERS_names = /* Tracer short name */
(PID.TID 0000.0001)               'PIC'
(PID.TID 0000.0001)     ;
(PID.TID 0000.0001) PTRACERS_long_names = /* Tracer long name */
(PID.TID 0000.0001)               ''
(PID.TID 0000.0001)     ;
(PID.TID 0000.0001) PTRACERS_ioLabel = /* tracer IO Label */
(PID.TID 0000.0001)               '17'
(PID.TID 0000.0001)     ;
(PID.TID 0000.0001) PTRACERS_advScheme = /* Advection Scheme */
(PID.TID 0000.0001)                      33
(PID.TID 0000.0001)     ;
(PID.TID 0000.0001) PTRACERS_SOM_Advection = /* tracer uses SOM advection scheme */
(PID.TID 0000.0001)                   F
(PID.TID 0000.0001)     ;
(PID.TID 0000.0001) PTRACERS_ImplVertAdv = /* implicit vert. advection flag */
(PID.TID 0000.0001)                   F
(PID.TID 0000.0001)     ;
(PID.TID 0000.0001) PTRACERS_MultiDimAdv = /* tracer uses Multi-Dim advection */
(PID.TID 0000.0001)                   T
(PID.TID 0000.0001)     ;
(PID.TID 0000.0001) PTRACERS_AdamsBashGtr = /* apply AB on tracer tendency */
(PID.TID 0000.0001)                   F
(PID.TID 0000.0001)     ;
(PID.TID 0000.0001) PTRACERS_AdamsBash_Tr = /* apply AB on passive tracer */
(PID.TID 0000.0001)                   F
(PID.TID 0000.0001)     ;
(PID.TID 0000.0001) PTRACERS_diffKh = /* Laplacian Diffusivity */
(PID.TID 0000.0001)                 0.000000000000000E+00
(PID.TID 0000.0001)     ;
(PID.TID 0000.0001) PTRACERS_diffK4 = /* Biharmonic Diffusivity */
(PID.TID 0000.0001)                 0.000000000000000E+00
(PID.TID 0000.0001)     ;
(PID.TID 0000.0001) PTRACERS_diffKrNr = /* Vertical Diffusivity */
(PID.TID 0000.0001)    35 @  1.000000000000000E-05              /* K =  1: 35 */
(PID.TID 0000.0001)     ;
(PID.TID 0000.0001) PTRACERS_useGMRedi = /* apply GM-Redi */
(PID.TID 0000.0001)                   F
(PID.TID 0000.0001)     ;
(PID.TID 0000.0001) PTRACERS_useDWNSLP = /* apply DOWN-SLOPE Flow */
(PID.TID 0000.0001)                   F
(PID.TID 0000.0001)     ;
(PID.TID 0000.0001) PTRACERS_useKPP = /* apply KPP scheme */
(PID.TID 0000.0001)                   F
(PID.TID 0000.0001)     ;
(PID.TID 0000.0001) PTRACERS_ref = /* Reference vertical profile */
(PID.TID 0000.0001)    35 @  0.000000000000000E+00              /* K =  1: 35 */
(PID.TID 0000.0001)     ;
(PID.TID 0000.0001) PTRACERS_EvPrRn =/* tracer conc. in Evap. & Rain */
(PID.TID 0000.0001)                 1.234567000000000E+05
(PID.TID 0000.0001)     ;
(PID.TID 0000.0001)  -----------------------------------
(PID.TID 0000.0001)  tracer number :   18
(PID.TID 0000.0001) PTRACERS_names = /* Tracer short name */
(PID.TID 0000.0001)               'CDOM'
(PID.TID 0000.0001)     ;
(PID.TID 0000.0001) PTRACERS_long_names = /* Tracer long name */
(PID.TID 0000.0001)               ''
(PID.TID 0000.0001)     ;
(PID.TID 0000.0001) PTRACERS_ioLabel = /* tracer IO Label */
(PID.TID 0000.0001)               '18'
(PID.TID 0000.0001)     ;
(PID.TID 0000.0001) PTRACERS_advScheme = /* Advection Scheme */
(PID.TID 0000.0001)                      33
(PID.TID 0000.0001)     ;
(PID.TID 0000.0001) PTRACERS_SOM_Advection = /* tracer uses SOM advection scheme */
(PID.TID 0000.0001)                   F
(PID.TID 0000.0001)     ;
(PID.TID 0000.0001) PTRACERS_ImplVertAdv = /* implicit vert. advection flag */
(PID.TID 0000.0001)                   F
(PID.TID 0000.0001)     ;
(PID.TID 0000.0001) PTRACERS_MultiDimAdv = /* tracer uses Multi-Dim advection */
(PID.TID 0000.0001)                   T
(PID.TID 0000.0001)     ;
(PID.TID 0000.0001) PTRACERS_AdamsBashGtr = /* apply AB on tracer tendency */
(PID.TID 0000.0001)                   F
(PID.TID 0000.0001)     ;
(PID.TID 0000.0001) PTRACERS_AdamsBash_Tr = /* apply AB on passive tracer */
(PID.TID 0000.0001)                   F
(PID.TID 0000.0001)     ;
(PID.TID 0000.0001) PTRACERS_diffKh = /* Laplacian Diffusivity */
(PID.TID 0000.0001)                 0.000000000000000E+00
(PID.TID 0000.0001)     ;
(PID.TID 0000.0001) PTRACERS_diffK4 = /* Biharmonic Diffusivity */
(PID.TID 0000.0001)                 0.000000000000000E+00
(PID.TID 0000.0001)     ;
(PID.TID 0000.0001) PTRACERS_diffKrNr = /* Vertical Diffusivity */
(PID.TID 0000.0001)    35 @  1.000000000000000E-05              /* K =  1: 35 */
(PID.TID 0000.0001)     ;
(PID.TID 0000.0001) PTRACERS_useGMRedi = /* apply GM-Redi */
(PID.TID 0000.0001)                   F
(PID.TID 0000.0001)     ;
(PID.TID 0000.0001) PTRACERS_useDWNSLP = /* apply DOWN-SLOPE Flow */
(PID.TID 0000.0001)                   F
(PID.TID 0000.0001)     ;
(PID.TID 0000.0001) PTRACERS_useKPP = /* apply KPP scheme */
(PID.TID 0000.0001)                   F
(PID.TID 0000.0001)     ;
(PID.TID 0000.0001) PTRACERS_ref = /* Reference vertical profile */
(PID.TID 0000.0001)    35 @  0.000000000000000E+00              /* K =  1: 35 */
(PID.TID 0000.0001)     ;
(PID.TID 0000.0001) PTRACERS_EvPrRn =/* tracer conc. in Evap. & Rain */
(PID.TID 0000.0001)                 1.234567000000000E+05
(PID.TID 0000.0001)     ;
(PID.TID 0000.0001)  -----------------------------------
(PID.TID 0000.0001)  tracer number :   19
(PID.TID 0000.0001) PTRACERS_names = /* Tracer short name */
(PID.TID 0000.0001)               'c01'
(PID.TID 0000.0001)     ;
(PID.TID 0000.0001) PTRACERS_long_names = /* Tracer long name */
(PID.TID 0000.0001)               ''
(PID.TID 0000.0001)     ;
(PID.TID 0000.0001) PTRACERS_ioLabel = /* tracer IO Label */
(PID.TID 0000.0001)               '19'
(PID.TID 0000.0001)     ;
(PID.TID 0000.0001) PTRACERS_advScheme = /* Advection Scheme */
(PID.TID 0000.0001)                      33
(PID.TID 0000.0001)     ;
(PID.TID 0000.0001) PTRACERS_SOM_Advection = /* tracer uses SOM advection scheme */
(PID.TID 0000.0001)                   F
(PID.TID 0000.0001)     ;
(PID.TID 0000.0001) PTRACERS_ImplVertAdv = /* implicit vert. advection flag */
(PID.TID 0000.0001)                   F
(PID.TID 0000.0001)     ;
(PID.TID 0000.0001) PTRACERS_MultiDimAdv = /* tracer uses Multi-Dim advection */
(PID.TID 0000.0001)                   T
(PID.TID 0000.0001)     ;
(PID.TID 0000.0001) PTRACERS_AdamsBashGtr = /* apply AB on tracer tendency */
(PID.TID 0000.0001)                   F
(PID.TID 0000.0001)     ;
(PID.TID 0000.0001) PTRACERS_AdamsBash_Tr = /* apply AB on passive tracer */
(PID.TID 0000.0001)                   F
(PID.TID 0000.0001)     ;
(PID.TID 0000.0001) PTRACERS_diffKh = /* Laplacian Diffusivity */
(PID.TID 0000.0001)                 0.000000000000000E+00
(PID.TID 0000.0001)     ;
(PID.TID 0000.0001) PTRACERS_diffK4 = /* Biharmonic Diffusivity */
(PID.TID 0000.0001)                 0.000000000000000E+00
(PID.TID 0000.0001)     ;
(PID.TID 0000.0001) PTRACERS_diffKrNr = /* Vertical Diffusivity */
(PID.TID 0000.0001)    35 @  1.000000000000000E-05              /* K =  1: 35 */
(PID.TID 0000.0001)     ;
(PID.TID 0000.0001) PTRACERS_useGMRedi = /* apply GM-Redi */
(PID.TID 0000.0001)                   F
(PID.TID 0000.0001)     ;
(PID.TID 0000.0001) PTRACERS_useDWNSLP = /* apply DOWN-SLOPE Flow */
(PID.TID 0000.0001)                   F
(PID.TID 0000.0001)     ;
(PID.TID 0000.0001) PTRACERS_useKPP = /* apply KPP scheme */
(PID.TID 0000.0001)                   F
(PID.TID 0000.0001)     ;
(PID.TID 0000.0001) PTRACERS_ref = /* Reference vertical profile */
(PID.TID 0000.0001)    35 @  0.000000000000000E+00              /* K =  1: 35 */
(PID.TID 0000.0001)     ;
(PID.TID 0000.0001) PTRACERS_EvPrRn =/* tracer conc. in Evap. & Rain */
(PID.TID 0000.0001)                 1.234567000000000E+05
(PID.TID 0000.0001)     ;
(PID.TID 0000.0001)  -----------------------------------
(PID.TID 0000.0001)  tracer number :   20
(PID.TID 0000.0001) PTRACERS_names = /* Tracer short name */
(PID.TID 0000.0001)               'c02'
(PID.TID 0000.0001)     ;
(PID.TID 0000.0001) PTRACERS_long_names = /* Tracer long name */
(PID.TID 0000.0001)               ''
(PID.TID 0000.0001)     ;
(PID.TID 0000.0001) PTRACERS_ioLabel = /* tracer IO Label */
(PID.TID 0000.0001)               '20'
(PID.TID 0000.0001)     ;
(PID.TID 0000.0001) PTRACERS_advScheme = /* Advection Scheme */
(PID.TID 0000.0001)                      33
(PID.TID 0000.0001)     ;
(PID.TID 0000.0001) PTRACERS_SOM_Advection = /* tracer uses SOM advection scheme */
(PID.TID 0000.0001)                   F
(PID.TID 0000.0001)     ;
(PID.TID 0000.0001) PTRACERS_ImplVertAdv = /* implicit vert. advection flag */
(PID.TID 0000.0001)                   F
(PID.TID 0000.0001)     ;
(PID.TID 0000.0001) PTRACERS_MultiDimAdv = /* tracer uses Multi-Dim advection */
(PID.TID 0000.0001)                   T
(PID.TID 0000.0001)     ;
(PID.TID 0000.0001) PTRACERS_AdamsBashGtr = /* apply AB on tracer tendency */
(PID.TID 0000.0001)                   F
(PID.TID 0000.0001)     ;
(PID.TID 0000.0001) PTRACERS_AdamsBash_Tr = /* apply AB on passive tracer */
(PID.TID 0000.0001)                   F
(PID.TID 0000.0001)     ;
(PID.TID 0000.0001) PTRACERS_diffKh = /* Laplacian Diffusivity */
(PID.TID 0000.0001)                 0.000000000000000E+00
(PID.TID 0000.0001)     ;
(PID.TID 0000.0001) PTRACERS_diffK4 = /* Biharmonic Diffusivity */
(PID.TID 0000.0001)                 0.000000000000000E+00
(PID.TID 0000.0001)     ;
(PID.TID 0000.0001) PTRACERS_diffKrNr = /* Vertical Diffusivity */
(PID.TID 0000.0001)    35 @  1.000000000000000E-05              /* K =  1: 35 */
(PID.TID 0000.0001)     ;
(PID.TID 0000.0001) PTRACERS_useGMRedi = /* apply GM-Redi */
(PID.TID 0000.0001)                   F
(PID.TID 0000.0001)     ;
(PID.TID 0000.0001) PTRACERS_useDWNSLP = /* apply DOWN-SLOPE Flow */
(PID.TID 0000.0001)                   F
(PID.TID 0000.0001)     ;
(PID.TID 0000.0001) PTRACERS_useKPP = /* apply KPP scheme */
(PID.TID 0000.0001)                   F
(PID.TID 0000.0001)     ;
(PID.TID 0000.0001) PTRACERS_ref = /* Reference vertical profile */
(PID.TID 0000.0001)    35 @  0.000000000000000E+00              /* K =  1: 35 */
(PID.TID 0000.0001)     ;
(PID.TID 0000.0001) PTRACERS_EvPrRn =/* tracer conc. in Evap. & Rain */
(PID.TID 0000.0001)                 1.234567000000000E+05
(PID.TID 0000.0001)     ;
(PID.TID 0000.0001)  -----------------------------------
(PID.TID 0000.0001)  tracer number :   21
(PID.TID 0000.0001) PTRACERS_names = /* Tracer short name */
(PID.TID 0000.0001)               'c03'
(PID.TID 0000.0001)     ;
(PID.TID 0000.0001) PTRACERS_long_names = /* Tracer long name */
(PID.TID 0000.0001)               ''
(PID.TID 0000.0001)     ;
(PID.TID 0000.0001) PTRACERS_ioLabel = /* tracer IO Label */
(PID.TID 0000.0001)               '21'
(PID.TID 0000.0001)     ;
(PID.TID 0000.0001) PTRACERS_advScheme = /* Advection Scheme */
(PID.TID 0000.0001)                      33
(PID.TID 0000.0001)     ;
(PID.TID 0000.0001) PTRACERS_SOM_Advection = /* tracer uses SOM advection scheme */
(PID.TID 0000.0001)                   F
(PID.TID 0000.0001)     ;
(PID.TID 0000.0001) PTRACERS_ImplVertAdv = /* implicit vert. advection flag */
(PID.TID 0000.0001)                   F
(PID.TID 0000.0001)     ;
(PID.TID 0000.0001) PTRACERS_MultiDimAdv = /* tracer uses Multi-Dim advection */
(PID.TID 0000.0001)                   T
(PID.TID 0000.0001)     ;
(PID.TID 0000.0001) PTRACERS_AdamsBashGtr = /* apply AB on tracer tendency */
(PID.TID 0000.0001)                   F
(PID.TID 0000.0001)     ;
(PID.TID 0000.0001) PTRACERS_AdamsBash_Tr = /* apply AB on passive tracer */
(PID.TID 0000.0001)                   F
(PID.TID 0000.0001)     ;
(PID.TID 0000.0001) PTRACERS_diffKh = /* Laplacian Diffusivity */
(PID.TID 0000.0001)                 0.000000000000000E+00
(PID.TID 0000.0001)     ;
(PID.TID 0000.0001) PTRACERS_diffK4 = /* Biharmonic Diffusivity */
(PID.TID 0000.0001)                 0.000000000000000E+00
(PID.TID 0000.0001)     ;
(PID.TID 0000.0001) PTRACERS_diffKrNr = /* Vertical Diffusivity */
(PID.TID 0000.0001)    35 @  1.000000000000000E-05              /* K =  1: 35 */
(PID.TID 0000.0001)     ;
(PID.TID 0000.0001) PTRACERS_useGMRedi = /* apply GM-Redi */
(PID.TID 0000.0001)                   F
(PID.TID 0000.0001)     ;
(PID.TID 0000.0001) PTRACERS_useDWNSLP = /* apply DOWN-SLOPE Flow */
(PID.TID 0000.0001)                   F
(PID.TID 0000.0001)     ;
(PID.TID 0000.0001) PTRACERS_useKPP = /* apply KPP scheme */
(PID.TID 0000.0001)                   F
(PID.TID 0000.0001)     ;
(PID.TID 0000.0001) PTRACERS_ref = /* Reference vertical profile */
(PID.TID 0000.0001)    35 @  0.000000000000000E+00              /* K =  1: 35 */
(PID.TID 0000.0001)     ;
(PID.TID 0000.0001) PTRACERS_EvPrRn =/* tracer conc. in Evap. & Rain */
(PID.TID 0000.0001)                 1.234567000000000E+05
(PID.TID 0000.0001)     ;
(PID.TID 0000.0001)  -----------------------------------
(PID.TID 0000.0001)  tracer number :   22
(PID.TID 0000.0001) PTRACERS_names = /* Tracer short name */
(PID.TID 0000.0001)               'c04'
(PID.TID 0000.0001)     ;
(PID.TID 0000.0001) PTRACERS_long_names = /* Tracer long name */
(PID.TID 0000.0001)               ''
(PID.TID 0000.0001)     ;
(PID.TID 0000.0001) PTRACERS_ioLabel = /* tracer IO Label */
(PID.TID 0000.0001)               '22'
(PID.TID 0000.0001)     ;
(PID.TID 0000.0001) PTRACERS_advScheme = /* Advection Scheme */
(PID.TID 0000.0001)                      33
(PID.TID 0000.0001)     ;
(PID.TID 0000.0001) PTRACERS_SOM_Advection = /* tracer uses SOM advection scheme */
(PID.TID 0000.0001)                   F
(PID.TID 0000.0001)     ;
(PID.TID 0000.0001) PTRACERS_ImplVertAdv = /* implicit vert. advection flag */
(PID.TID 0000.0001)                   F
(PID.TID 0000.0001)     ;
(PID.TID 0000.0001) PTRACERS_MultiDimAdv = /* tracer uses Multi-Dim advection */
(PID.TID 0000.0001)                   T
(PID.TID 0000.0001)     ;
(PID.TID 0000.0001) PTRACERS_AdamsBashGtr = /* apply AB on tracer tendency */
(PID.TID 0000.0001)                   F
(PID.TID 0000.0001)     ;
(PID.TID 0000.0001) PTRACERS_AdamsBash_Tr = /* apply AB on passive tracer */
(PID.TID 0000.0001)                   F
(PID.TID 0000.0001)     ;
(PID.TID 0000.0001) PTRACERS_diffKh = /* Laplacian Diffusivity */
(PID.TID 0000.0001)                 0.000000000000000E+00
(PID.TID 0000.0001)     ;
(PID.TID 0000.0001) PTRACERS_diffK4 = /* Biharmonic Diffusivity */
(PID.TID 0000.0001)                 0.000000000000000E+00
(PID.TID 0000.0001)     ;
(PID.TID 0000.0001) PTRACERS_diffKrNr = /* Vertical Diffusivity */
(PID.TID 0000.0001)    35 @  1.000000000000000E-05              /* K =  1: 35 */
(PID.TID 0000.0001)     ;
(PID.TID 0000.0001) PTRACERS_useGMRedi = /* apply GM-Redi */
(PID.TID 0000.0001)                   F
(PID.TID 0000.0001)     ;
(PID.TID 0000.0001) PTRACERS_useDWNSLP = /* apply DOWN-SLOPE Flow */
(PID.TID 0000.0001)                   F
(PID.TID 0000.0001)     ;
(PID.TID 0000.0001) PTRACERS_useKPP = /* apply KPP scheme */
(PID.TID 0000.0001)                   F
(PID.TID 0000.0001)     ;
(PID.TID 0000.0001) PTRACERS_ref = /* Reference vertical profile */
(PID.TID 0000.0001)    35 @  0.000000000000000E+00              /* K =  1: 35 */
(PID.TID 0000.0001)     ;
(PID.TID 0000.0001) PTRACERS_EvPrRn =/* tracer conc. in Evap. & Rain */
(PID.TID 0000.0001)                 1.234567000000000E+05
(PID.TID 0000.0001)     ;
(PID.TID 0000.0001)  -----------------------------------
(PID.TID 0000.0001)  tracer number :   23
(PID.TID 0000.0001) PTRACERS_names = /* Tracer short name */
(PID.TID 0000.0001)               'c05'
(PID.TID 0000.0001)     ;
(PID.TID 0000.0001) PTRACERS_long_names = /* Tracer long name */
(PID.TID 0000.0001)               ''
(PID.TID 0000.0001)     ;
(PID.TID 0000.0001) PTRACERS_ioLabel = /* tracer IO Label */
(PID.TID 0000.0001)               '23'
(PID.TID 0000.0001)     ;
(PID.TID 0000.0001) PTRACERS_advScheme = /* Advection Scheme */
(PID.TID 0000.0001)                      33
(PID.TID 0000.0001)     ;
(PID.TID 0000.0001) PTRACERS_SOM_Advection = /* tracer uses SOM advection scheme */
(PID.TID 0000.0001)                   F
(PID.TID 0000.0001)     ;
(PID.TID 0000.0001) PTRACERS_ImplVertAdv = /* implicit vert. advection flag */
(PID.TID 0000.0001)                   F
(PID.TID 0000.0001)     ;
(PID.TID 0000.0001) PTRACERS_MultiDimAdv = /* tracer uses Multi-Dim advection */
(PID.TID 0000.0001)                   T
(PID.TID 0000.0001)     ;
(PID.TID 0000.0001) PTRACERS_AdamsBashGtr = /* apply AB on tracer tendency */
(PID.TID 0000.0001)                   F
(PID.TID 0000.0001)     ;
(PID.TID 0000.0001) PTRACERS_AdamsBash_Tr = /* apply AB on passive tracer */
(PID.TID 0000.0001)                   F
(PID.TID 0000.0001)     ;
(PID.TID 0000.0001) PTRACERS_diffKh = /* Laplacian Diffusivity */
(PID.TID 0000.0001)                 0.000000000000000E+00
(PID.TID 0000.0001)     ;
(PID.TID 0000.0001) PTRACERS_diffK4 = /* Biharmonic Diffusivity */
(PID.TID 0000.0001)                 0.000000000000000E+00
(PID.TID 0000.0001)     ;
(PID.TID 0000.0001) PTRACERS_diffKrNr = /* Vertical Diffusivity */
(PID.TID 0000.0001)    35 @  1.000000000000000E-05              /* K =  1: 35 */
(PID.TID 0000.0001)     ;
(PID.TID 0000.0001) PTRACERS_useGMRedi = /* apply GM-Redi */
(PID.TID 0000.0001)                   F
(PID.TID 0000.0001)     ;
(PID.TID 0000.0001) PTRACERS_useDWNSLP = /* apply DOWN-SLOPE Flow */
(PID.TID 0000.0001)                   F
(PID.TID 0000.0001)     ;
(PID.TID 0000.0001) PTRACERS_useKPP = /* apply KPP scheme */
(PID.TID 0000.0001)                   F
(PID.TID 0000.0001)     ;
(PID.TID 0000.0001) PTRACERS_ref = /* Reference vertical profile */
(PID.TID 0000.0001)    35 @  0.000000000000000E+00              /* K =  1: 35 */
(PID.TID 0000.0001)     ;
(PID.TID 0000.0001) PTRACERS_EvPrRn =/* tracer conc. in Evap. & Rain */
(PID.TID 0000.0001)                 1.234567000000000E+05
(PID.TID 0000.0001)     ;
(PID.TID 0000.0001)  -----------------------------------
(PID.TID 0000.0001)  tracer number :   24
(PID.TID 0000.0001) PTRACERS_names = /* Tracer short name */
(PID.TID 0000.0001)               'c06'
(PID.TID 0000.0001)     ;
(PID.TID 0000.0001) PTRACERS_long_names = /* Tracer long name */
(PID.TID 0000.0001)               ''
(PID.TID 0000.0001)     ;
(PID.TID 0000.0001) PTRACERS_ioLabel = /* tracer IO Label */
(PID.TID 0000.0001)               '24'
(PID.TID 0000.0001)     ;
(PID.TID 0000.0001) PTRACERS_advScheme = /* Advection Scheme */
(PID.TID 0000.0001)                      33
(PID.TID 0000.0001)     ;
(PID.TID 0000.0001) PTRACERS_SOM_Advection = /* tracer uses SOM advection scheme */
(PID.TID 0000.0001)                   F
(PID.TID 0000.0001)     ;
(PID.TID 0000.0001) PTRACERS_ImplVertAdv = /* implicit vert. advection flag */
(PID.TID 0000.0001)                   F
(PID.TID 0000.0001)     ;
(PID.TID 0000.0001) PTRACERS_MultiDimAdv = /* tracer uses Multi-Dim advection */
(PID.TID 0000.0001)                   T
(PID.TID 0000.0001)     ;
(PID.TID 0000.0001) PTRACERS_AdamsBashGtr = /* apply AB on tracer tendency */
(PID.TID 0000.0001)                   F
(PID.TID 0000.0001)     ;
(PID.TID 0000.0001) PTRACERS_AdamsBash_Tr = /* apply AB on passive tracer */
(PID.TID 0000.0001)                   F
(PID.TID 0000.0001)     ;
(PID.TID 0000.0001) PTRACERS_diffKh = /* Laplacian Diffusivity */
(PID.TID 0000.0001)                 0.000000000000000E+00
(PID.TID 0000.0001)     ;
(PID.TID 0000.0001) PTRACERS_diffK4 = /* Biharmonic Diffusivity */
(PID.TID 0000.0001)                 0.000000000000000E+00
(PID.TID 0000.0001)     ;
(PID.TID 0000.0001) PTRACERS_diffKrNr = /* Vertical Diffusivity */
(PID.TID 0000.0001)    35 @  1.000000000000000E-05              /* K =  1: 35 */
(PID.TID 0000.0001)     ;
(PID.TID 0000.0001) PTRACERS_useGMRedi = /* apply GM-Redi */
(PID.TID 0000.0001)                   F
(PID.TID 0000.0001)     ;
(PID.TID 0000.0001) PTRACERS_useDWNSLP = /* apply DOWN-SLOPE Flow */
(PID.TID 0000.0001)                   F
(PID.TID 0000.0001)     ;
(PID.TID 0000.0001) PTRACERS_useKPP = /* apply KPP scheme */
(PID.TID 0000.0001)                   F
(PID.TID 0000.0001)     ;
(PID.TID 0000.0001) PTRACERS_ref = /* Reference vertical profile */
(PID.TID 0000.0001)    35 @  0.000000000000000E+00              /* K =  1: 35 */
(PID.TID 0000.0001)     ;
(PID.TID 0000.0001) PTRACERS_EvPrRn =/* tracer conc. in Evap. & Rain */
(PID.TID 0000.0001)                 1.234567000000000E+05
(PID.TID 0000.0001)     ;
(PID.TID 0000.0001)  -----------------------------------
(PID.TID 0000.0001)  tracer number :   25
(PID.TID 0000.0001) PTRACERS_names = /* Tracer short name */
(PID.TID 0000.0001)               'c07'
(PID.TID 0000.0001)     ;
(PID.TID 0000.0001) PTRACERS_long_names = /* Tracer long name */
(PID.TID 0000.0001)               ''
(PID.TID 0000.0001)     ;
(PID.TID 0000.0001) PTRACERS_ioLabel = /* tracer IO Label */
(PID.TID 0000.0001)               '25'
(PID.TID 0000.0001)     ;
(PID.TID 0000.0001) PTRACERS_advScheme = /* Advection Scheme */
(PID.TID 0000.0001)                      33
(PID.TID 0000.0001)     ;
(PID.TID 0000.0001) PTRACERS_SOM_Advection = /* tracer uses SOM advection scheme */
(PID.TID 0000.0001)                   F
(PID.TID 0000.0001)     ;
(PID.TID 0000.0001) PTRACERS_ImplVertAdv = /* implicit vert. advection flag */
(PID.TID 0000.0001)                   F
(PID.TID 0000.0001)     ;
(PID.TID 0000.0001) PTRACERS_MultiDimAdv = /* tracer uses Multi-Dim advection */
(PID.TID 0000.0001)                   T
(PID.TID 0000.0001)     ;
(PID.TID 0000.0001) PTRACERS_AdamsBashGtr = /* apply AB on tracer tendency */
(PID.TID 0000.0001)                   F
(PID.TID 0000.0001)     ;
(PID.TID 0000.0001) PTRACERS_AdamsBash_Tr = /* apply AB on passive tracer */
(PID.TID 0000.0001)                   F
(PID.TID 0000.0001)     ;
(PID.TID 0000.0001) PTRACERS_diffKh = /* Laplacian Diffusivity */
(PID.TID 0000.0001)                 0.000000000000000E+00
(PID.TID 0000.0001)     ;
(PID.TID 0000.0001) PTRACERS_diffK4 = /* Biharmonic Diffusivity */
(PID.TID 0000.0001)                 0.000000000000000E+00
(PID.TID 0000.0001)     ;
(PID.TID 0000.0001) PTRACERS_diffKrNr = /* Vertical Diffusivity */
(PID.TID 0000.0001)    35 @  1.000000000000000E-05              /* K =  1: 35 */
(PID.TID 0000.0001)     ;
(PID.TID 0000.0001) PTRACERS_useGMRedi = /* apply GM-Redi */
(PID.TID 0000.0001)                   F
(PID.TID 0000.0001)     ;
(PID.TID 0000.0001) PTRACERS_useDWNSLP = /* apply DOWN-SLOPE Flow */
(PID.TID 0000.0001)                   F
(PID.TID 0000.0001)     ;
(PID.TID 0000.0001) PTRACERS_useKPP = /* apply KPP scheme */
(PID.TID 0000.0001)                   F
(PID.TID 0000.0001)     ;
(PID.TID 0000.0001) PTRACERS_ref = /* Reference vertical profile */
(PID.TID 0000.0001)    35 @  0.000000000000000E+00              /* K =  1: 35 */
(PID.TID 0000.0001)     ;
(PID.TID 0000.0001) PTRACERS_EvPrRn =/* tracer conc. in Evap. & Rain */
(PID.TID 0000.0001)                 1.234567000000000E+05
(PID.TID 0000.0001)     ;
(PID.TID 0000.0001)  -----------------------------------
(PID.TID 0000.0001)  tracer number :   26
(PID.TID 0000.0001) PTRACERS_names = /* Tracer short name */
(PID.TID 0000.0001)               'c08'
(PID.TID 0000.0001)     ;
(PID.TID 0000.0001) PTRACERS_long_names = /* Tracer long name */
(PID.TID 0000.0001)               ''
(PID.TID 0000.0001)     ;
(PID.TID 0000.0001) PTRACERS_ioLabel = /* tracer IO Label */
(PID.TID 0000.0001)               '26'
(PID.TID 0000.0001)     ;
(PID.TID 0000.0001) PTRACERS_advScheme = /* Advection Scheme */
(PID.TID 0000.0001)                      33
(PID.TID 0000.0001)     ;
(PID.TID 0000.0001) PTRACERS_SOM_Advection = /* tracer uses SOM advection scheme */
(PID.TID 0000.0001)                   F
(PID.TID 0000.0001)     ;
(PID.TID 0000.0001) PTRACERS_ImplVertAdv = /* implicit vert. advection flag */
(PID.TID 0000.0001)                   F
(PID.TID 0000.0001)     ;
(PID.TID 0000.0001) PTRACERS_MultiDimAdv = /* tracer uses Multi-Dim advection */
(PID.TID 0000.0001)                   T
(PID.TID 0000.0001)     ;
(PID.TID 0000.0001) PTRACERS_AdamsBashGtr = /* apply AB on tracer tendency */
(PID.TID 0000.0001)                   F
(PID.TID 0000.0001)     ;
(PID.TID 0000.0001) PTRACERS_AdamsBash_Tr = /* apply AB on passive tracer */
(PID.TID 0000.0001)                   F
(PID.TID 0000.0001)     ;
(PID.TID 0000.0001) PTRACERS_diffKh = /* Laplacian Diffusivity */
(PID.TID 0000.0001)                 0.000000000000000E+00
(PID.TID 0000.0001)     ;
(PID.TID 0000.0001) PTRACERS_diffK4 = /* Biharmonic Diffusivity */
(PID.TID 0000.0001)                 0.000000000000000E+00
(PID.TID 0000.0001)     ;
(PID.TID 0000.0001) PTRACERS_diffKrNr = /* Vertical Diffusivity */
(PID.TID 0000.0001)    35 @  1.000000000000000E-05              /* K =  1: 35 */
(PID.TID 0000.0001)     ;
(PID.TID 0000.0001) PTRACERS_useGMRedi = /* apply GM-Redi */
(PID.TID 0000.0001)                   F
(PID.TID 0000.0001)     ;
(PID.TID 0000.0001) PTRACERS_useDWNSLP = /* apply DOWN-SLOPE Flow */
(PID.TID 0000.0001)                   F
(PID.TID 0000.0001)     ;
(PID.TID 0000.0001) PTRACERS_useKPP = /* apply KPP scheme */
(PID.TID 0000.0001)                   F
(PID.TID 0000.0001)     ;
(PID.TID 0000.0001) PTRACERS_ref = /* Reference vertical profile */
(PID.TID 0000.0001)    35 @  0.000000000000000E+00              /* K =  1: 35 */
(PID.TID 0000.0001)     ;
(PID.TID 0000.0001) PTRACERS_EvPrRn =/* tracer conc. in Evap. & Rain */
(PID.TID 0000.0001)                 1.234567000000000E+05
(PID.TID 0000.0001)     ;
(PID.TID 0000.0001)  -----------------------------------
(PID.TID 0000.0001)  tracer number :   27
(PID.TID 0000.0001) PTRACERS_names = /* Tracer short name */
(PID.TID 0000.0001)               'c09'
(PID.TID 0000.0001)     ;
(PID.TID 0000.0001) PTRACERS_long_names = /* Tracer long name */
(PID.TID 0000.0001)               ''
(PID.TID 0000.0001)     ;
(PID.TID 0000.0001) PTRACERS_ioLabel = /* tracer IO Label */
(PID.TID 0000.0001)               '27'
(PID.TID 0000.0001)     ;
(PID.TID 0000.0001) PTRACERS_advScheme = /* Advection Scheme */
(PID.TID 0000.0001)                      33
(PID.TID 0000.0001)     ;
(PID.TID 0000.0001) PTRACERS_SOM_Advection = /* tracer uses SOM advection scheme */
(PID.TID 0000.0001)                   F
(PID.TID 0000.0001)     ;
(PID.TID 0000.0001) PTRACERS_ImplVertAdv = /* implicit vert. advection flag */
(PID.TID 0000.0001)                   F
(PID.TID 0000.0001)     ;
(PID.TID 0000.0001) PTRACERS_MultiDimAdv = /* tracer uses Multi-Dim advection */
(PID.TID 0000.0001)                   T
(PID.TID 0000.0001)     ;
(PID.TID 0000.0001) PTRACERS_AdamsBashGtr = /* apply AB on tracer tendency */
(PID.TID 0000.0001)                   F
(PID.TID 0000.0001)     ;
(PID.TID 0000.0001) PTRACERS_AdamsBash_Tr = /* apply AB on passive tracer */
(PID.TID 0000.0001)                   F
(PID.TID 0000.0001)     ;
(PID.TID 0000.0001) PTRACERS_diffKh = /* Laplacian Diffusivity */
(PID.TID 0000.0001)                 0.000000000000000E+00
(PID.TID 0000.0001)     ;
(PID.TID 0000.0001) PTRACERS_diffK4 = /* Biharmonic Diffusivity */
(PID.TID 0000.0001)                 0.000000000000000E+00
(PID.TID 0000.0001)     ;
(PID.TID 0000.0001) PTRACERS_diffKrNr = /* Vertical Diffusivity */
(PID.TID 0000.0001)    35 @  1.000000000000000E-05              /* K =  1: 35 */
(PID.TID 0000.0001)     ;
(PID.TID 0000.0001) PTRACERS_useGMRedi = /* apply GM-Redi */
(PID.TID 0000.0001)                   F
(PID.TID 0000.0001)     ;
(PID.TID 0000.0001) PTRACERS_useDWNSLP = /* apply DOWN-SLOPE Flow */
(PID.TID 0000.0001)                   F
(PID.TID 0000.0001)     ;
(PID.TID 0000.0001) PTRACERS_useKPP = /* apply KPP scheme */
(PID.TID 0000.0001)                   F
(PID.TID 0000.0001)     ;
(PID.TID 0000.0001) PTRACERS_ref = /* Reference vertical profile */
(PID.TID 0000.0001)    35 @  0.000000000000000E+00              /* K =  1: 35 */
(PID.TID 0000.0001)     ;
(PID.TID 0000.0001) PTRACERS_EvPrRn =/* tracer conc. in Evap. & Rain */
(PID.TID 0000.0001)                 1.234567000000000E+05
(PID.TID 0000.0001)     ;
(PID.TID 0000.0001)  -----------------------------------
(PID.TID 0000.0001)  tracer number :   28
(PID.TID 0000.0001) PTRACERS_names = /* Tracer short name */
(PID.TID 0000.0001)               'c10'
(PID.TID 0000.0001)     ;
(PID.TID 0000.0001) PTRACERS_long_names = /* Tracer long name */
(PID.TID 0000.0001)               ''
(PID.TID 0000.0001)     ;
(PID.TID 0000.0001) PTRACERS_ioLabel = /* tracer IO Label */
(PID.TID 0000.0001)               '28'
(PID.TID 0000.0001)     ;
(PID.TID 0000.0001) PTRACERS_advScheme = /* Advection Scheme */
(PID.TID 0000.0001)                      33
(PID.TID 0000.0001)     ;
(PID.TID 0000.0001) PTRACERS_SOM_Advection = /* tracer uses SOM advection scheme */
(PID.TID 0000.0001)                   F
(PID.TID 0000.0001)     ;
(PID.TID 0000.0001) PTRACERS_ImplVertAdv = /* implicit vert. advection flag */
(PID.TID 0000.0001)                   F
(PID.TID 0000.0001)     ;
(PID.TID 0000.0001) PTRACERS_MultiDimAdv = /* tracer uses Multi-Dim advection */
(PID.TID 0000.0001)                   T
(PID.TID 0000.0001)     ;
(PID.TID 0000.0001) PTRACERS_AdamsBashGtr = /* apply AB on tracer tendency */
(PID.TID 0000.0001)                   F
(PID.TID 0000.0001)     ;
(PID.TID 0000.0001) PTRACERS_AdamsBash_Tr = /* apply AB on passive tracer */
(PID.TID 0000.0001)                   F
(PID.TID 0000.0001)     ;
(PID.TID 0000.0001) PTRACERS_diffKh = /* Laplacian Diffusivity */
(PID.TID 0000.0001)                 0.000000000000000E+00
(PID.TID 0000.0001)     ;
(PID.TID 0000.0001) PTRACERS_diffK4 = /* Biharmonic Diffusivity */
(PID.TID 0000.0001)                 0.000000000000000E+00
(PID.TID 0000.0001)     ;
(PID.TID 0000.0001) PTRACERS_diffKrNr = /* Vertical Diffusivity */
(PID.TID 0000.0001)    35 @  1.000000000000000E-05              /* K =  1: 35 */
(PID.TID 0000.0001)     ;
(PID.TID 0000.0001) PTRACERS_useGMRedi = /* apply GM-Redi */
(PID.TID 0000.0001)                   F
(PID.TID 0000.0001)     ;
(PID.TID 0000.0001) PTRACERS_useDWNSLP = /* apply DOWN-SLOPE Flow */
(PID.TID 0000.0001)                   F
(PID.TID 0000.0001)     ;
(PID.TID 0000.0001) PTRACERS_useKPP = /* apply KPP scheme */
(PID.TID 0000.0001)                   F
(PID.TID 0000.0001)     ;
(PID.TID 0000.0001) PTRACERS_ref = /* Reference vertical profile */
(PID.TID 0000.0001)    35 @  0.000000000000000E+00              /* K =  1: 35 */
(PID.TID 0000.0001)     ;
(PID.TID 0000.0001) PTRACERS_EvPrRn =/* tracer conc. in Evap. & Rain */
(PID.TID 0000.0001)                 1.234567000000000E+05
(PID.TID 0000.0001)     ;
(PID.TID 0000.0001)  -----------------------------------
(PID.TID 0000.0001)  tracer number :   29
(PID.TID 0000.0001) PTRACERS_names = /* Tracer short name */
(PID.TID 0000.0001)               'c11'
(PID.TID 0000.0001)     ;
(PID.TID 0000.0001) PTRACERS_long_names = /* Tracer long name */
(PID.TID 0000.0001)               ''
(PID.TID 0000.0001)     ;
(PID.TID 0000.0001) PTRACERS_ioLabel = /* tracer IO Label */
(PID.TID 0000.0001)               '29'
(PID.TID 0000.0001)     ;
(PID.TID 0000.0001) PTRACERS_advScheme = /* Advection Scheme */
(PID.TID 0000.0001)                      33
(PID.TID 0000.0001)     ;
(PID.TID 0000.0001) PTRACERS_SOM_Advection = /* tracer uses SOM advection scheme */
(PID.TID 0000.0001)                   F
(PID.TID 0000.0001)     ;
(PID.TID 0000.0001) PTRACERS_ImplVertAdv = /* implicit vert. advection flag */
(PID.TID 0000.0001)                   F
(PID.TID 0000.0001)     ;
(PID.TID 0000.0001) PTRACERS_MultiDimAdv = /* tracer uses Multi-Dim advection */
(PID.TID 0000.0001)                   T
(PID.TID 0000.0001)     ;
(PID.TID 0000.0001) PTRACERS_AdamsBashGtr = /* apply AB on tracer tendency */
(PID.TID 0000.0001)                   F
(PID.TID 0000.0001)     ;
(PID.TID 0000.0001) PTRACERS_AdamsBash_Tr = /* apply AB on passive tracer */
(PID.TID 0000.0001)                   F
(PID.TID 0000.0001)     ;
(PID.TID 0000.0001) PTRACERS_diffKh = /* Laplacian Diffusivity */
(PID.TID 0000.0001)                 0.000000000000000E+00
(PID.TID 0000.0001)     ;
(PID.TID 0000.0001) PTRACERS_diffK4 = /* Biharmonic Diffusivity */
(PID.TID 0000.0001)                 0.000000000000000E+00
(PID.TID 0000.0001)     ;
(PID.TID 0000.0001) PTRACERS_diffKrNr = /* Vertical Diffusivity */
(PID.TID 0000.0001)    35 @  1.000000000000000E-05              /* K =  1: 35 */
(PID.TID 0000.0001)     ;
(PID.TID 0000.0001) PTRACERS_useGMRedi = /* apply GM-Redi */
(PID.TID 0000.0001)                   F
(PID.TID 0000.0001)     ;
(PID.TID 0000.0001) PTRACERS_useDWNSLP = /* apply DOWN-SLOPE Flow */
(PID.TID 0000.0001)                   F
(PID.TID 0000.0001)     ;
(PID.TID 0000.0001) PTRACERS_useKPP = /* apply KPP scheme */
(PID.TID 0000.0001)                   F
(PID.TID 0000.0001)     ;
(PID.TID 0000.0001) PTRACERS_ref = /* Reference vertical profile */
(PID.TID 0000.0001)    35 @  0.000000000000000E+00              /* K =  1: 35 */
(PID.TID 0000.0001)     ;
(PID.TID 0000.0001) PTRACERS_EvPrRn =/* tracer conc. in Evap. & Rain */
(PID.TID 0000.0001)                 1.234567000000000E+05
(PID.TID 0000.0001)     ;
(PID.TID 0000.0001)  -----------------------------------
(PID.TID 0000.0001)  tracer number :   30
(PID.TID 0000.0001) PTRACERS_names = /* Tracer short name */
(PID.TID 0000.0001)               'c12'
(PID.TID 0000.0001)     ;
(PID.TID 0000.0001) PTRACERS_long_names = /* Tracer long name */
(PID.TID 0000.0001)               ''
(PID.TID 0000.0001)     ;
(PID.TID 0000.0001) PTRACERS_ioLabel = /* tracer IO Label */
(PID.TID 0000.0001)               '30'
(PID.TID 0000.0001)     ;
(PID.TID 0000.0001) PTRACERS_advScheme = /* Advection Scheme */
(PID.TID 0000.0001)                      33
(PID.TID 0000.0001)     ;
(PID.TID 0000.0001) PTRACERS_SOM_Advection = /* tracer uses SOM advection scheme */
(PID.TID 0000.0001)                   F
(PID.TID 0000.0001)     ;
(PID.TID 0000.0001) PTRACERS_ImplVertAdv = /* implicit vert. advection flag */
(PID.TID 0000.0001)                   F
(PID.TID 0000.0001)     ;
(PID.TID 0000.0001) PTRACERS_MultiDimAdv = /* tracer uses Multi-Dim advection */
(PID.TID 0000.0001)                   T
(PID.TID 0000.0001)     ;
(PID.TID 0000.0001) PTRACERS_AdamsBashGtr = /* apply AB on tracer tendency */
(PID.TID 0000.0001)                   F
(PID.TID 0000.0001)     ;
(PID.TID 0000.0001) PTRACERS_AdamsBash_Tr = /* apply AB on passive tracer */
(PID.TID 0000.0001)                   F
(PID.TID 0000.0001)     ;
(PID.TID 0000.0001) PTRACERS_diffKh = /* Laplacian Diffusivity */
(PID.TID 0000.0001)                 0.000000000000000E+00
(PID.TID 0000.0001)     ;
(PID.TID 0000.0001) PTRACERS_diffK4 = /* Biharmonic Diffusivity */
(PID.TID 0000.0001)                 0.000000000000000E+00
(PID.TID 0000.0001)     ;
(PID.TID 0000.0001) PTRACERS_diffKrNr = /* Vertical Diffusivity */
(PID.TID 0000.0001)    35 @  1.000000000000000E-05              /* K =  1: 35 */
(PID.TID 0000.0001)     ;
(PID.TID 0000.0001) PTRACERS_useGMRedi = /* apply GM-Redi */
(PID.TID 0000.0001)                   F
(PID.TID 0000.0001)     ;
(PID.TID 0000.0001) PTRACERS_useDWNSLP = /* apply DOWN-SLOPE Flow */
(PID.TID 0000.0001)                   F
(PID.TID 0000.0001)     ;
(PID.TID 0000.0001) PTRACERS_useKPP = /* apply KPP scheme */
(PID.TID 0000.0001)                   F
(PID.TID 0000.0001)     ;
(PID.TID 0000.0001) PTRACERS_ref = /* Reference vertical profile */
(PID.TID 0000.0001)    35 @  0.000000000000000E+00              /* K =  1: 35 */
(PID.TID 0000.0001)     ;
(PID.TID 0000.0001) PTRACERS_EvPrRn =/* tracer conc. in Evap. & Rain */
(PID.TID 0000.0001)                 1.234567000000000E+05
(PID.TID 0000.0001)     ;
(PID.TID 0000.0001)  -----------------------------------
(PID.TID 0000.0001)  tracer number :   31
(PID.TID 0000.0001) PTRACERS_names = /* Tracer short name */
(PID.TID 0000.0001)               'c13'
(PID.TID 0000.0001)     ;
(PID.TID 0000.0001) PTRACERS_long_names = /* Tracer long name */
(PID.TID 0000.0001)               ''
(PID.TID 0000.0001)     ;
(PID.TID 0000.0001) PTRACERS_ioLabel = /* tracer IO Label */
(PID.TID 0000.0001)               '31'
(PID.TID 0000.0001)     ;
(PID.TID 0000.0001) PTRACERS_advScheme = /* Advection Scheme */
(PID.TID 0000.0001)                      33
(PID.TID 0000.0001)     ;
(PID.TID 0000.0001) PTRACERS_SOM_Advection = /* tracer uses SOM advection scheme */
(PID.TID 0000.0001)                   F
(PID.TID 0000.0001)     ;
(PID.TID 0000.0001) PTRACERS_ImplVertAdv = /* implicit vert. advection flag */
(PID.TID 0000.0001)                   F
(PID.TID 0000.0001)     ;
(PID.TID 0000.0001) PTRACERS_MultiDimAdv = /* tracer uses Multi-Dim advection */
(PID.TID 0000.0001)                   T
(PID.TID 0000.0001)     ;
(PID.TID 0000.0001) PTRACERS_AdamsBashGtr = /* apply AB on tracer tendency */
(PID.TID 0000.0001)                   F
(PID.TID 0000.0001)     ;
(PID.TID 0000.0001) PTRACERS_AdamsBash_Tr = /* apply AB on passive tracer */
(PID.TID 0000.0001)                   F
(PID.TID 0000.0001)     ;
(PID.TID 0000.0001) PTRACERS_diffKh = /* Laplacian Diffusivity */
(PID.TID 0000.0001)                 0.000000000000000E+00
(PID.TID 0000.0001)     ;
(PID.TID 0000.0001) PTRACERS_diffK4 = /* Biharmonic Diffusivity */
(PID.TID 0000.0001)                 0.000000000000000E+00
(PID.TID 0000.0001)     ;
(PID.TID 0000.0001) PTRACERS_diffKrNr = /* Vertical Diffusivity */
(PID.TID 0000.0001)    35 @  1.000000000000000E-05              /* K =  1: 35 */
(PID.TID 0000.0001)     ;
(PID.TID 0000.0001) PTRACERS_useGMRedi = /* apply GM-Redi */
(PID.TID 0000.0001)                   F
(PID.TID 0000.0001)     ;
(PID.TID 0000.0001) PTRACERS_useDWNSLP = /* apply DOWN-SLOPE Flow */
(PID.TID 0000.0001)                   F
(PID.TID 0000.0001)     ;
(PID.TID 0000.0001) PTRACERS_useKPP = /* apply KPP scheme */
(PID.TID 0000.0001)                   F
(PID.TID 0000.0001)     ;
(PID.TID 0000.0001) PTRACERS_ref = /* Reference vertical profile */
(PID.TID 0000.0001)    35 @  0.000000000000000E+00              /* K =  1: 35 */
(PID.TID 0000.0001)     ;
(PID.TID 0000.0001) PTRACERS_EvPrRn =/* tracer conc. in Evap. & Rain */
(PID.TID 0000.0001)                 1.234567000000000E+05
(PID.TID 0000.0001)     ;
(PID.TID 0000.0001)  -----------------------------------
(PID.TID 0000.0001)  tracer number :   32
(PID.TID 0000.0001) PTRACERS_names = /* Tracer short name */
(PID.TID 0000.0001)               'c14'
(PID.TID 0000.0001)     ;
(PID.TID 0000.0001) PTRACERS_long_names = /* Tracer long name */
(PID.TID 0000.0001)               ''
(PID.TID 0000.0001)     ;
(PID.TID 0000.0001) PTRACERS_ioLabel = /* tracer IO Label */
(PID.TID 0000.0001)               '32'
(PID.TID 0000.0001)     ;
(PID.TID 0000.0001) PTRACERS_advScheme = /* Advection Scheme */
(PID.TID 0000.0001)                      33
(PID.TID 0000.0001)     ;
(PID.TID 0000.0001) PTRACERS_SOM_Advection = /* tracer uses SOM advection scheme */
(PID.TID 0000.0001)                   F
(PID.TID 0000.0001)     ;
(PID.TID 0000.0001) PTRACERS_ImplVertAdv = /* implicit vert. advection flag */
(PID.TID 0000.0001)                   F
(PID.TID 0000.0001)     ;
(PID.TID 0000.0001) PTRACERS_MultiDimAdv = /* tracer uses Multi-Dim advection */
(PID.TID 0000.0001)                   T
(PID.TID 0000.0001)     ;
(PID.TID 0000.0001) PTRACERS_AdamsBashGtr = /* apply AB on tracer tendency */
(PID.TID 0000.0001)                   F
(PID.TID 0000.0001)     ;
(PID.TID 0000.0001) PTRACERS_AdamsBash_Tr = /* apply AB on passive tracer */
(PID.TID 0000.0001)                   F
(PID.TID 0000.0001)     ;
(PID.TID 0000.0001) PTRACERS_diffKh = /* Laplacian Diffusivity */
(PID.TID 0000.0001)                 0.000000000000000E+00
(PID.TID 0000.0001)     ;
(PID.TID 0000.0001) PTRACERS_diffK4 = /* Biharmonic Diffusivity */
(PID.TID 0000.0001)                 0.000000000000000E+00
(PID.TID 0000.0001)     ;
(PID.TID 0000.0001) PTRACERS_diffKrNr = /* Vertical Diffusivity */
(PID.TID 0000.0001)    35 @  1.000000000000000E-05              /* K =  1: 35 */
(PID.TID 0000.0001)     ;
(PID.TID 0000.0001) PTRACERS_useGMRedi = /* apply GM-Redi */
(PID.TID 0000.0001)                   F
(PID.TID 0000.0001)     ;
(PID.TID 0000.0001) PTRACERS_useDWNSLP = /* apply DOWN-SLOPE Flow */
(PID.TID 0000.0001)                   F
(PID.TID 0000.0001)     ;
(PID.TID 0000.0001) PTRACERS_useKPP = /* apply KPP scheme */
(PID.TID 0000.0001)                   F
(PID.TID 0000.0001)     ;
(PID.TID 0000.0001) PTRACERS_ref = /* Reference vertical profile */
(PID.TID 0000.0001)    35 @  0.000000000000000E+00              /* K =  1: 35 */
(PID.TID 0000.0001)     ;
(PID.TID 0000.0001) PTRACERS_EvPrRn =/* tracer conc. in Evap. & Rain */
(PID.TID 0000.0001)                 1.234567000000000E+05
(PID.TID 0000.0001)     ;
(PID.TID 0000.0001)  -----------------------------------
(PID.TID 0000.0001)  tracer number :   33
(PID.TID 0000.0001) PTRACERS_names = /* Tracer short name */
(PID.TID 0000.0001)               'c15'
(PID.TID 0000.0001)     ;
(PID.TID 0000.0001) PTRACERS_long_names = /* Tracer long name */
(PID.TID 0000.0001)               ''
(PID.TID 0000.0001)     ;
(PID.TID 0000.0001) PTRACERS_ioLabel = /* tracer IO Label */
(PID.TID 0000.0001)               '33'
(PID.TID 0000.0001)     ;
(PID.TID 0000.0001) PTRACERS_advScheme = /* Advection Scheme */
(PID.TID 0000.0001)                      33
(PID.TID 0000.0001)     ;
(PID.TID 0000.0001) PTRACERS_SOM_Advection = /* tracer uses SOM advection scheme */
(PID.TID 0000.0001)                   F
(PID.TID 0000.0001)     ;
(PID.TID 0000.0001) PTRACERS_ImplVertAdv = /* implicit vert. advection flag */
(PID.TID 0000.0001)                   F
(PID.TID 0000.0001)     ;
(PID.TID 0000.0001) PTRACERS_MultiDimAdv = /* tracer uses Multi-Dim advection */
(PID.TID 0000.0001)                   T
(PID.TID 0000.0001)     ;
(PID.TID 0000.0001) PTRACERS_AdamsBashGtr = /* apply AB on tracer tendency */
(PID.TID 0000.0001)                   F
(PID.TID 0000.0001)     ;
(PID.TID 0000.0001) PTRACERS_AdamsBash_Tr = /* apply AB on passive tracer */
(PID.TID 0000.0001)                   F
(PID.TID 0000.0001)     ;
(PID.TID 0000.0001) PTRACERS_diffKh = /* Laplacian Diffusivity */
(PID.TID 0000.0001)                 0.000000000000000E+00
(PID.TID 0000.0001)     ;
(PID.TID 0000.0001) PTRACERS_diffK4 = /* Biharmonic Diffusivity */
(PID.TID 0000.0001)                 0.000000000000000E+00
(PID.TID 0000.0001)     ;
(PID.TID 0000.0001) PTRACERS_diffKrNr = /* Vertical Diffusivity */
(PID.TID 0000.0001)    35 @  1.000000000000000E-05              /* K =  1: 35 */
(PID.TID 0000.0001)     ;
(PID.TID 0000.0001) PTRACERS_useGMRedi = /* apply GM-Redi */
(PID.TID 0000.0001)                   F
(PID.TID 0000.0001)     ;
(PID.TID 0000.0001) PTRACERS_useDWNSLP = /* apply DOWN-SLOPE Flow */
(PID.TID 0000.0001)                   F
(PID.TID 0000.0001)     ;
(PID.TID 0000.0001) PTRACERS_useKPP = /* apply KPP scheme */
(PID.TID 0000.0001)                   F
(PID.TID 0000.0001)     ;
(PID.TID 0000.0001) PTRACERS_ref = /* Reference vertical profile */
(PID.TID 0000.0001)    35 @  0.000000000000000E+00              /* K =  1: 35 */
(PID.TID 0000.0001)     ;
(PID.TID 0000.0001) PTRACERS_EvPrRn =/* tracer conc. in Evap. & Rain */
(PID.TID 0000.0001)                 1.234567000000000E+05
(PID.TID 0000.0001)     ;
(PID.TID 0000.0001)  -----------------------------------
(PID.TID 0000.0001)  tracer number :   34
(PID.TID 0000.0001) PTRACERS_names = /* Tracer short name */
(PID.TID 0000.0001)               'c16'
(PID.TID 0000.0001)     ;
(PID.TID 0000.0001) PTRACERS_long_names = /* Tracer long name */
(PID.TID 0000.0001)               ''
(PID.TID 0000.0001)     ;
(PID.TID 0000.0001) PTRACERS_ioLabel = /* tracer IO Label */
(PID.TID 0000.0001)               '34'
(PID.TID 0000.0001)     ;
(PID.TID 0000.0001) PTRACERS_advScheme = /* Advection Scheme */
(PID.TID 0000.0001)                      33
(PID.TID 0000.0001)     ;
(PID.TID 0000.0001) PTRACERS_SOM_Advection = /* tracer uses SOM advection scheme */
(PID.TID 0000.0001)                   F
(PID.TID 0000.0001)     ;
(PID.TID 0000.0001) PTRACERS_ImplVertAdv = /* implicit vert. advection flag */
(PID.TID 0000.0001)                   F
(PID.TID 0000.0001)     ;
(PID.TID 0000.0001) PTRACERS_MultiDimAdv = /* tracer uses Multi-Dim advection */
(PID.TID 0000.0001)                   T
(PID.TID 0000.0001)     ;
(PID.TID 0000.0001) PTRACERS_AdamsBashGtr = /* apply AB on tracer tendency */
(PID.TID 0000.0001)                   F
(PID.TID 0000.0001)     ;
(PID.TID 0000.0001) PTRACERS_AdamsBash_Tr = /* apply AB on passive tracer */
(PID.TID 0000.0001)                   F
(PID.TID 0000.0001)     ;
(PID.TID 0000.0001) PTRACERS_diffKh = /* Laplacian Diffusivity */
(PID.TID 0000.0001)                 0.000000000000000E+00
(PID.TID 0000.0001)     ;
(PID.TID 0000.0001) PTRACERS_diffK4 = /* Biharmonic Diffusivity */
(PID.TID 0000.0001)                 0.000000000000000E+00
(PID.TID 0000.0001)     ;
(PID.TID 0000.0001) PTRACERS_diffKrNr = /* Vertical Diffusivity */
(PID.TID 0000.0001)    35 @  1.000000000000000E-05              /* K =  1: 35 */
(PID.TID 0000.0001)     ;
(PID.TID 0000.0001) PTRACERS_useGMRedi = /* apply GM-Redi */
(PID.TID 0000.0001)                   F
(PID.TID 0000.0001)     ;
(PID.TID 0000.0001) PTRACERS_useDWNSLP = /* apply DOWN-SLOPE Flow */
(PID.TID 0000.0001)                   F
(PID.TID 0000.0001)     ;
(PID.TID 0000.0001) PTRACERS_useKPP = /* apply KPP scheme */
(PID.TID 0000.0001)                   F
(PID.TID 0000.0001)     ;
(PID.TID 0000.0001) PTRACERS_ref = /* Reference vertical profile */
(PID.TID 0000.0001)    35 @  0.000000000000000E+00              /* K =  1: 35 */
(PID.TID 0000.0001)     ;
(PID.TID 0000.0001) PTRACERS_EvPrRn =/* tracer conc. in Evap. & Rain */
(PID.TID 0000.0001)                 1.234567000000000E+05
(PID.TID 0000.0001)     ;
(PID.TID 0000.0001)  -----------------------------------
(PID.TID 0000.0001)  tracer number :   35
(PID.TID 0000.0001) PTRACERS_names = /* Tracer short name */
(PID.TID 0000.0001)               'c17'
(PID.TID 0000.0001)     ;
(PID.TID 0000.0001) PTRACERS_long_names = /* Tracer long name */
(PID.TID 0000.0001)               ''
(PID.TID 0000.0001)     ;
(PID.TID 0000.0001) PTRACERS_ioLabel = /* tracer IO Label */
(PID.TID 0000.0001)               '35'
(PID.TID 0000.0001)     ;
(PID.TID 0000.0001) PTRACERS_advScheme = /* Advection Scheme */
(PID.TID 0000.0001)                      33
(PID.TID 0000.0001)     ;
(PID.TID 0000.0001) PTRACERS_SOM_Advection = /* tracer uses SOM advection scheme */
(PID.TID 0000.0001)                   F
(PID.TID 0000.0001)     ;
(PID.TID 0000.0001) PTRACERS_ImplVertAdv = /* implicit vert. advection flag */
(PID.TID 0000.0001)                   F
(PID.TID 0000.0001)     ;
(PID.TID 0000.0001) PTRACERS_MultiDimAdv = /* tracer uses Multi-Dim advection */
(PID.TID 0000.0001)                   T
(PID.TID 0000.0001)     ;
(PID.TID 0000.0001) PTRACERS_AdamsBashGtr = /* apply AB on tracer tendency */
(PID.TID 0000.0001)                   F
(PID.TID 0000.0001)     ;
(PID.TID 0000.0001) PTRACERS_AdamsBash_Tr = /* apply AB on passive tracer */
(PID.TID 0000.0001)                   F
(PID.TID 0000.0001)     ;
(PID.TID 0000.0001) PTRACERS_diffKh = /* Laplacian Diffusivity */
(PID.TID 0000.0001)                 0.000000000000000E+00
(PID.TID 0000.0001)     ;
(PID.TID 0000.0001) PTRACERS_diffK4 = /* Biharmonic Diffusivity */
(PID.TID 0000.0001)                 0.000000000000000E+00
(PID.TID 0000.0001)     ;
(PID.TID 0000.0001) PTRACERS_diffKrNr = /* Vertical Diffusivity */
(PID.TID 0000.0001)    35 @  1.000000000000000E-05              /* K =  1: 35 */
(PID.TID 0000.0001)     ;
(PID.TID 0000.0001) PTRACERS_useGMRedi = /* apply GM-Redi */
(PID.TID 0000.0001)                   F
(PID.TID 0000.0001)     ;
(PID.TID 0000.0001) PTRACERS_useDWNSLP = /* apply DOWN-SLOPE Flow */
(PID.TID 0000.0001)                   F
(PID.TID 0000.0001)     ;
(PID.TID 0000.0001) PTRACERS_useKPP = /* apply KPP scheme */
(PID.TID 0000.0001)                   F
(PID.TID 0000.0001)     ;
(PID.TID 0000.0001) PTRACERS_ref = /* Reference vertical profile */
(PID.TID 0000.0001)    35 @  0.000000000000000E+00              /* K =  1: 35 */
(PID.TID 0000.0001)     ;
(PID.TID 0000.0001) PTRACERS_EvPrRn =/* tracer conc. in Evap. & Rain */
(PID.TID 0000.0001)                 1.234567000000000E+05
(PID.TID 0000.0001)     ;
(PID.TID 0000.0001)  -----------------------------------
(PID.TID 0000.0001)  tracer number :   36
(PID.TID 0000.0001) PTRACERS_names = /* Tracer short name */
(PID.TID 0000.0001)               'c18'
(PID.TID 0000.0001)     ;
(PID.TID 0000.0001) PTRACERS_long_names = /* Tracer long name */
(PID.TID 0000.0001)               ''
(PID.TID 0000.0001)     ;
(PID.TID 0000.0001) PTRACERS_ioLabel = /* tracer IO Label */
(PID.TID 0000.0001)               '36'
(PID.TID 0000.0001)     ;
(PID.TID 0000.0001) PTRACERS_advScheme = /* Advection Scheme */
(PID.TID 0000.0001)                      33
(PID.TID 0000.0001)     ;
(PID.TID 0000.0001) PTRACERS_SOM_Advection = /* tracer uses SOM advection scheme */
(PID.TID 0000.0001)                   F
(PID.TID 0000.0001)     ;
(PID.TID 0000.0001) PTRACERS_ImplVertAdv = /* implicit vert. advection flag */
(PID.TID 0000.0001)                   F
(PID.TID 0000.0001)     ;
(PID.TID 0000.0001) PTRACERS_MultiDimAdv = /* tracer uses Multi-Dim advection */
(PID.TID 0000.0001)                   T
(PID.TID 0000.0001)     ;
(PID.TID 0000.0001) PTRACERS_AdamsBashGtr = /* apply AB on tracer tendency */
(PID.TID 0000.0001)                   F
(PID.TID 0000.0001)     ;
(PID.TID 0000.0001) PTRACERS_AdamsBash_Tr = /* apply AB on passive tracer */
(PID.TID 0000.0001)                   F
(PID.TID 0000.0001)     ;
(PID.TID 0000.0001) PTRACERS_diffKh = /* Laplacian Diffusivity */
(PID.TID 0000.0001)                 0.000000000000000E+00
(PID.TID 0000.0001)     ;
(PID.TID 0000.0001) PTRACERS_diffK4 = /* Biharmonic Diffusivity */
(PID.TID 0000.0001)                 0.000000000000000E+00
(PID.TID 0000.0001)     ;
(PID.TID 0000.0001) PTRACERS_diffKrNr = /* Vertical Diffusivity */
(PID.TID 0000.0001)    35 @  1.000000000000000E-05              /* K =  1: 35 */
(PID.TID 0000.0001)     ;
(PID.TID 0000.0001) PTRACERS_useGMRedi = /* apply GM-Redi */
(PID.TID 0000.0001)                   F
(PID.TID 0000.0001)     ;
(PID.TID 0000.0001) PTRACERS_useDWNSLP = /* apply DOWN-SLOPE Flow */
(PID.TID 0000.0001)                   F
(PID.TID 0000.0001)     ;
(PID.TID 0000.0001) PTRACERS_useKPP = /* apply KPP scheme */
(PID.TID 0000.0001)                   F
(PID.TID 0000.0001)     ;
(PID.TID 0000.0001) PTRACERS_ref = /* Reference vertical profile */
(PID.TID 0000.0001)    35 @  0.000000000000000E+00              /* K =  1: 35 */
(PID.TID 0000.0001)     ;
(PID.TID 0000.0001) PTRACERS_EvPrRn =/* tracer conc. in Evap. & Rain */
(PID.TID 0000.0001)                 1.234567000000000E+05
(PID.TID 0000.0001)     ;
(PID.TID 0000.0001)  -----------------------------------
(PID.TID 0000.0001)  tracer number :   37
(PID.TID 0000.0001) PTRACERS_names = /* Tracer short name */
(PID.TID 0000.0001)               'c19'
(PID.TID 0000.0001)     ;
(PID.TID 0000.0001) PTRACERS_long_names = /* Tracer long name */
(PID.TID 0000.0001)               ''
(PID.TID 0000.0001)     ;
(PID.TID 0000.0001) PTRACERS_ioLabel = /* tracer IO Label */
(PID.TID 0000.0001)               '37'
(PID.TID 0000.0001)     ;
(PID.TID 0000.0001) PTRACERS_advScheme = /* Advection Scheme */
(PID.TID 0000.0001)                      33
(PID.TID 0000.0001)     ;
(PID.TID 0000.0001) PTRACERS_SOM_Advection = /* tracer uses SOM advection scheme */
(PID.TID 0000.0001)                   F
(PID.TID 0000.0001)     ;
(PID.TID 0000.0001) PTRACERS_ImplVertAdv = /* implicit vert. advection flag */
(PID.TID 0000.0001)                   F
(PID.TID 0000.0001)     ;
(PID.TID 0000.0001) PTRACERS_MultiDimAdv = /* tracer uses Multi-Dim advection */
(PID.TID 0000.0001)                   T
(PID.TID 0000.0001)     ;
(PID.TID 0000.0001) PTRACERS_AdamsBashGtr = /* apply AB on tracer tendency */
(PID.TID 0000.0001)                   F
(PID.TID 0000.0001)     ;
(PID.TID 0000.0001) PTRACERS_AdamsBash_Tr = /* apply AB on passive tracer */
(PID.TID 0000.0001)                   F
(PID.TID 0000.0001)     ;
(PID.TID 0000.0001) PTRACERS_diffKh = /* Laplacian Diffusivity */
(PID.TID 0000.0001)                 0.000000000000000E+00
(PID.TID 0000.0001)     ;
(PID.TID 0000.0001) PTRACERS_diffK4 = /* Biharmonic Diffusivity */
(PID.TID 0000.0001)                 0.000000000000000E+00
(PID.TID 0000.0001)     ;
(PID.TID 0000.0001) PTRACERS_diffKrNr = /* Vertical Diffusivity */
(PID.TID 0000.0001)    35 @  1.000000000000000E-05              /* K =  1: 35 */
(PID.TID 0000.0001)     ;
(PID.TID 0000.0001) PTRACERS_useGMRedi = /* apply GM-Redi */
(PID.TID 0000.0001)                   F
(PID.TID 0000.0001)     ;
(PID.TID 0000.0001) PTRACERS_useDWNSLP = /* apply DOWN-SLOPE Flow */
(PID.TID 0000.0001)                   F
(PID.TID 0000.0001)     ;
(PID.TID 0000.0001) PTRACERS_useKPP = /* apply KPP scheme */
(PID.TID 0000.0001)                   F
(PID.TID 0000.0001)     ;
(PID.TID 0000.0001) PTRACERS_ref = /* Reference vertical profile */
(PID.TID 0000.0001)    35 @  0.000000000000000E+00              /* K =  1: 35 */
(PID.TID 0000.0001)     ;
(PID.TID 0000.0001) PTRACERS_EvPrRn =/* tracer conc. in Evap. & Rain */
(PID.TID 0000.0001)                 1.234567000000000E+05
(PID.TID 0000.0001)     ;
(PID.TID 0000.0001)  -----------------------------------
(PID.TID 0000.0001)  tracer number :   38
(PID.TID 0000.0001) PTRACERS_names = /* Tracer short name */
(PID.TID 0000.0001)               'c20'
(PID.TID 0000.0001)     ;
(PID.TID 0000.0001) PTRACERS_long_names = /* Tracer long name */
(PID.TID 0000.0001)               ''
(PID.TID 0000.0001)     ;
(PID.TID 0000.0001) PTRACERS_ioLabel = /* tracer IO Label */
(PID.TID 0000.0001)               '38'
(PID.TID 0000.0001)     ;
(PID.TID 0000.0001) PTRACERS_advScheme = /* Advection Scheme */
(PID.TID 0000.0001)                      33
(PID.TID 0000.0001)     ;
(PID.TID 0000.0001) PTRACERS_SOM_Advection = /* tracer uses SOM advection scheme */
(PID.TID 0000.0001)                   F
(PID.TID 0000.0001)     ;
(PID.TID 0000.0001) PTRACERS_ImplVertAdv = /* implicit vert. advection flag */
(PID.TID 0000.0001)                   F
(PID.TID 0000.0001)     ;
(PID.TID 0000.0001) PTRACERS_MultiDimAdv = /* tracer uses Multi-Dim advection */
(PID.TID 0000.0001)                   T
(PID.TID 0000.0001)     ;
(PID.TID 0000.0001) PTRACERS_AdamsBashGtr = /* apply AB on tracer tendency */
(PID.TID 0000.0001)                   F
(PID.TID 0000.0001)     ;
(PID.TID 0000.0001) PTRACERS_AdamsBash_Tr = /* apply AB on passive tracer */
(PID.TID 0000.0001)                   F
(PID.TID 0000.0001)     ;
(PID.TID 0000.0001) PTRACERS_diffKh = /* Laplacian Diffusivity */
(PID.TID 0000.0001)                 0.000000000000000E+00
(PID.TID 0000.0001)     ;
(PID.TID 0000.0001) PTRACERS_diffK4 = /* Biharmonic Diffusivity */
(PID.TID 0000.0001)                 0.000000000000000E+00
(PID.TID 0000.0001)     ;
(PID.TID 0000.0001) PTRACERS_diffKrNr = /* Vertical Diffusivity */
(PID.TID 0000.0001)    35 @  1.000000000000000E-05              /* K =  1: 35 */
(PID.TID 0000.0001)     ;
(PID.TID 0000.0001) PTRACERS_useGMRedi = /* apply GM-Redi */
(PID.TID 0000.0001)                   F
(PID.TID 0000.0001)     ;
(PID.TID 0000.0001) PTRACERS_useDWNSLP = /* apply DOWN-SLOPE Flow */
(PID.TID 0000.0001)                   F
(PID.TID 0000.0001)     ;
(PID.TID 0000.0001) PTRACERS_useKPP = /* apply KPP scheme */
(PID.TID 0000.0001)                   F
(PID.TID 0000.0001)     ;
(PID.TID 0000.0001) PTRACERS_ref = /* Reference vertical profile */
(PID.TID 0000.0001)    35 @  0.000000000000000E+00              /* K =  1: 35 */
(PID.TID 0000.0001)     ;
(PID.TID 0000.0001) PTRACERS_EvPrRn =/* tracer conc. in Evap. & Rain */
(PID.TID 0000.0001)                 1.234567000000000E+05
(PID.TID 0000.0001)     ;
(PID.TID 0000.0001)  -----------------------------------
(PID.TID 0000.0001)  tracer number :   39
(PID.TID 0000.0001) PTRACERS_names = /* Tracer short name */
(PID.TID 0000.0001)               'c21'
(PID.TID 0000.0001)     ;
(PID.TID 0000.0001) PTRACERS_long_names = /* Tracer long name */
(PID.TID 0000.0001)               ''
(PID.TID 0000.0001)     ;
(PID.TID 0000.0001) PTRACERS_ioLabel = /* tracer IO Label */
(PID.TID 0000.0001)               '39'
(PID.TID 0000.0001)     ;
(PID.TID 0000.0001) PTRACERS_advScheme = /* Advection Scheme */
(PID.TID 0000.0001)                      33
(PID.TID 0000.0001)     ;
(PID.TID 0000.0001) PTRACERS_SOM_Advection = /* tracer uses SOM advection scheme */
(PID.TID 0000.0001)                   F
(PID.TID 0000.0001)     ;
(PID.TID 0000.0001) PTRACERS_ImplVertAdv = /* implicit vert. advection flag */
(PID.TID 0000.0001)                   F
(PID.TID 0000.0001)     ;
(PID.TID 0000.0001) PTRACERS_MultiDimAdv = /* tracer uses Multi-Dim advection */
(PID.TID 0000.0001)                   T
(PID.TID 0000.0001)     ;
(PID.TID 0000.0001) PTRACERS_AdamsBashGtr = /* apply AB on tracer tendency */
(PID.TID 0000.0001)                   F
(PID.TID 0000.0001)     ;
(PID.TID 0000.0001) PTRACERS_AdamsBash_Tr = /* apply AB on passive tracer */
(PID.TID 0000.0001)                   F
(PID.TID 0000.0001)     ;
(PID.TID 0000.0001) PTRACERS_diffKh = /* Laplacian Diffusivity */
(PID.TID 0000.0001)                 0.000000000000000E+00
(PID.TID 0000.0001)     ;
(PID.TID 0000.0001) PTRACERS_diffK4 = /* Biharmonic Diffusivity */
(PID.TID 0000.0001)                 0.000000000000000E+00
(PID.TID 0000.0001)     ;
(PID.TID 0000.0001) PTRACERS_diffKrNr = /* Vertical Diffusivity */
(PID.TID 0000.0001)    35 @  1.000000000000000E-05              /* K =  1: 35 */
(PID.TID 0000.0001)     ;
(PID.TID 0000.0001) PTRACERS_useGMRedi = /* apply GM-Redi */
(PID.TID 0000.0001)                   F
(PID.TID 0000.0001)     ;
(PID.TID 0000.0001) PTRACERS_useDWNSLP = /* apply DOWN-SLOPE Flow */
(PID.TID 0000.0001)                   F
(PID.TID 0000.0001)     ;
(PID.TID 0000.0001) PTRACERS_useKPP = /* apply KPP scheme */
(PID.TID 0000.0001)                   F
(PID.TID 0000.0001)     ;
(PID.TID 0000.0001) PTRACERS_ref = /* Reference vertical profile */
(PID.TID 0000.0001)    35 @  0.000000000000000E+00              /* K =  1: 35 */
(PID.TID 0000.0001)     ;
(PID.TID 0000.0001) PTRACERS_EvPrRn =/* tracer conc. in Evap. & Rain */
(PID.TID 0000.0001)                 1.234567000000000E+05
(PID.TID 0000.0001)     ;
(PID.TID 0000.0001)  -----------------------------------
(PID.TID 0000.0001)  tracer number :   40
(PID.TID 0000.0001) PTRACERS_names = /* Tracer short name */
(PID.TID 0000.0001)               'c22'
(PID.TID 0000.0001)     ;
(PID.TID 0000.0001) PTRACERS_long_names = /* Tracer long name */
(PID.TID 0000.0001)               ''
(PID.TID 0000.0001)     ;
(PID.TID 0000.0001) PTRACERS_ioLabel = /* tracer IO Label */
(PID.TID 0000.0001)               '40'
(PID.TID 0000.0001)     ;
(PID.TID 0000.0001) PTRACERS_advScheme = /* Advection Scheme */
(PID.TID 0000.0001)                      33
(PID.TID 0000.0001)     ;
(PID.TID 0000.0001) PTRACERS_SOM_Advection = /* tracer uses SOM advection scheme */
(PID.TID 0000.0001)                   F
(PID.TID 0000.0001)     ;
(PID.TID 0000.0001) PTRACERS_ImplVertAdv = /* implicit vert. advection flag */
(PID.TID 0000.0001)                   F
(PID.TID 0000.0001)     ;
(PID.TID 0000.0001) PTRACERS_MultiDimAdv = /* tracer uses Multi-Dim advection */
(PID.TID 0000.0001)                   T
(PID.TID 0000.0001)     ;
(PID.TID 0000.0001) PTRACERS_AdamsBashGtr = /* apply AB on tracer tendency */
(PID.TID 0000.0001)                   F
(PID.TID 0000.0001)     ;
(PID.TID 0000.0001) PTRACERS_AdamsBash_Tr = /* apply AB on passive tracer */
(PID.TID 0000.0001)                   F
(PID.TID 0000.0001)     ;
(PID.TID 0000.0001) PTRACERS_diffKh = /* Laplacian Diffusivity */
(PID.TID 0000.0001)                 0.000000000000000E+00
(PID.TID 0000.0001)     ;
(PID.TID 0000.0001) PTRACERS_diffK4 = /* Biharmonic Diffusivity */
(PID.TID 0000.0001)                 0.000000000000000E+00
(PID.TID 0000.0001)     ;
(PID.TID 0000.0001) PTRACERS_diffKrNr = /* Vertical Diffusivity */
(PID.TID 0000.0001)    35 @  1.000000000000000E-05              /* K =  1: 35 */
(PID.TID 0000.0001)     ;
(PID.TID 0000.0001) PTRACERS_useGMRedi = /* apply GM-Redi */
(PID.TID 0000.0001)                   F
(PID.TID 0000.0001)     ;
(PID.TID 0000.0001) PTRACERS_useDWNSLP = /* apply DOWN-SLOPE Flow */
(PID.TID 0000.0001)                   F
(PID.TID 0000.0001)     ;
(PID.TID 0000.0001) PTRACERS_useKPP = /* apply KPP scheme */
(PID.TID 0000.0001)                   F
(PID.TID 0000.0001)     ;
(PID.TID 0000.0001) PTRACERS_ref = /* Reference vertical profile */
(PID.TID 0000.0001)    35 @  0.000000000000000E+00              /* K =  1: 35 */
(PID.TID 0000.0001)     ;
(PID.TID 0000.0001) PTRACERS_EvPrRn =/* tracer conc. in Evap. & Rain */
(PID.TID 0000.0001)                 1.234567000000000E+05
(PID.TID 0000.0001)     ;
(PID.TID 0000.0001)  -----------------------------------
(PID.TID 0000.0001)  tracer number :   41
(PID.TID 0000.0001) PTRACERS_names = /* Tracer short name */
(PID.TID 0000.0001)               'c23'
(PID.TID 0000.0001)     ;
(PID.TID 0000.0001) PTRACERS_long_names = /* Tracer long name */
(PID.TID 0000.0001)               ''
(PID.TID 0000.0001)     ;
(PID.TID 0000.0001) PTRACERS_ioLabel = /* tracer IO Label */
(PID.TID 0000.0001)               '41'
(PID.TID 0000.0001)     ;
(PID.TID 0000.0001) PTRACERS_advScheme = /* Advection Scheme */
(PID.TID 0000.0001)                      33
(PID.TID 0000.0001)     ;
(PID.TID 0000.0001) PTRACERS_SOM_Advection = /* tracer uses SOM advection scheme */
(PID.TID 0000.0001)                   F
(PID.TID 0000.0001)     ;
(PID.TID 0000.0001) PTRACERS_ImplVertAdv = /* implicit vert. advection flag */
(PID.TID 0000.0001)                   F
(PID.TID 0000.0001)     ;
(PID.TID 0000.0001) PTRACERS_MultiDimAdv = /* tracer uses Multi-Dim advection */
(PID.TID 0000.0001)                   T
(PID.TID 0000.0001)     ;
(PID.TID 0000.0001) PTRACERS_AdamsBashGtr = /* apply AB on tracer tendency */
(PID.TID 0000.0001)                   F
(PID.TID 0000.0001)     ;
(PID.TID 0000.0001) PTRACERS_AdamsBash_Tr = /* apply AB on passive tracer */
(PID.TID 0000.0001)                   F
(PID.TID 0000.0001)     ;
(PID.TID 0000.0001) PTRACERS_diffKh = /* Laplacian Diffusivity */
(PID.TID 0000.0001)                 0.000000000000000E+00
(PID.TID 0000.0001)     ;
(PID.TID 0000.0001) PTRACERS_diffK4 = /* Biharmonic Diffusivity */
(PID.TID 0000.0001)                 0.000000000000000E+00
(PID.TID 0000.0001)     ;
(PID.TID 0000.0001) PTRACERS_diffKrNr = /* Vertical Diffusivity */
(PID.TID 0000.0001)    35 @  1.000000000000000E-05              /* K =  1: 35 */
(PID.TID 0000.0001)     ;
(PID.TID 0000.0001) PTRACERS_useGMRedi = /* apply GM-Redi */
(PID.TID 0000.0001)                   F
(PID.TID 0000.0001)     ;
(PID.TID 0000.0001) PTRACERS_useDWNSLP = /* apply DOWN-SLOPE Flow */
(PID.TID 0000.0001)                   F
(PID.TID 0000.0001)     ;
(PID.TID 0000.0001) PTRACERS_useKPP = /* apply KPP scheme */
(PID.TID 0000.0001)                   F
(PID.TID 0000.0001)     ;
(PID.TID 0000.0001) PTRACERS_ref = /* Reference vertical profile */
(PID.TID 0000.0001)    35 @  0.000000000000000E+00              /* K =  1: 35 */
(PID.TID 0000.0001)     ;
(PID.TID 0000.0001) PTRACERS_EvPrRn =/* tracer conc. in Evap. & Rain */
(PID.TID 0000.0001)                 1.234567000000000E+05
(PID.TID 0000.0001)     ;
(PID.TID 0000.0001)  -----------------------------------
(PID.TID 0000.0001)  tracer number :   42
(PID.TID 0000.0001) PTRACERS_names = /* Tracer short name */
(PID.TID 0000.0001)               'c24'
(PID.TID 0000.0001)     ;
(PID.TID 0000.0001) PTRACERS_long_names = /* Tracer long name */
(PID.TID 0000.0001)               ''
(PID.TID 0000.0001)     ;
(PID.TID 0000.0001) PTRACERS_ioLabel = /* tracer IO Label */
(PID.TID 0000.0001)               '42'
(PID.TID 0000.0001)     ;
(PID.TID 0000.0001) PTRACERS_advScheme = /* Advection Scheme */
(PID.TID 0000.0001)                      33
(PID.TID 0000.0001)     ;
(PID.TID 0000.0001) PTRACERS_SOM_Advection = /* tracer uses SOM advection scheme */
(PID.TID 0000.0001)                   F
(PID.TID 0000.0001)     ;
(PID.TID 0000.0001) PTRACERS_ImplVertAdv = /* implicit vert. advection flag */
(PID.TID 0000.0001)                   F
(PID.TID 0000.0001)     ;
(PID.TID 0000.0001) PTRACERS_MultiDimAdv = /* tracer uses Multi-Dim advection */
(PID.TID 0000.0001)                   T
(PID.TID 0000.0001)     ;
(PID.TID 0000.0001) PTRACERS_AdamsBashGtr = /* apply AB on tracer tendency */
(PID.TID 0000.0001)                   F
(PID.TID 0000.0001)     ;
(PID.TID 0000.0001) PTRACERS_AdamsBash_Tr = /* apply AB on passive tracer */
(PID.TID 0000.0001)                   F
(PID.TID 0000.0001)     ;
(PID.TID 0000.0001) PTRACERS_diffKh = /* Laplacian Diffusivity */
(PID.TID 0000.0001)                 0.000000000000000E+00
(PID.TID 0000.0001)     ;
(PID.TID 0000.0001) PTRACERS_diffK4 = /* Biharmonic Diffusivity */
(PID.TID 0000.0001)                 0.000000000000000E+00
(PID.TID 0000.0001)     ;
(PID.TID 0000.0001) PTRACERS_diffKrNr = /* Vertical Diffusivity */
(PID.TID 0000.0001)    35 @  1.000000000000000E-05              /* K =  1: 35 */
(PID.TID 0000.0001)     ;
(PID.TID 0000.0001) PTRACERS_useGMRedi = /* apply GM-Redi */
(PID.TID 0000.0001)                   F
(PID.TID 0000.0001)     ;
(PID.TID 0000.0001) PTRACERS_useDWNSLP = /* apply DOWN-SLOPE Flow */
(PID.TID 0000.0001)                   F
(PID.TID 0000.0001)     ;
(PID.TID 0000.0001) PTRACERS_useKPP = /* apply KPP scheme */
(PID.TID 0000.0001)                   F
(PID.TID 0000.0001)     ;
(PID.TID 0000.0001) PTRACERS_ref = /* Reference vertical profile */
(PID.TID 0000.0001)    35 @  0.000000000000000E+00              /* K =  1: 35 */
(PID.TID 0000.0001)     ;
(PID.TID 0000.0001) PTRACERS_EvPrRn =/* tracer conc. in Evap. & Rain */
(PID.TID 0000.0001)                 1.234567000000000E+05
(PID.TID 0000.0001)     ;
(PID.TID 0000.0001)  -----------------------------------
(PID.TID 0000.0001)  tracer number :   43
(PID.TID 0000.0001) PTRACERS_names = /* Tracer short name */
(PID.TID 0000.0001)               'c25'
(PID.TID 0000.0001)     ;
(PID.TID 0000.0001) PTRACERS_long_names = /* Tracer long name */
(PID.TID 0000.0001)               ''
(PID.TID 0000.0001)     ;
(PID.TID 0000.0001) PTRACERS_ioLabel = /* tracer IO Label */
(PID.TID 0000.0001)               '43'
(PID.TID 0000.0001)     ;
(PID.TID 0000.0001) PTRACERS_advScheme = /* Advection Scheme */
(PID.TID 0000.0001)                      33
(PID.TID 0000.0001)     ;
(PID.TID 0000.0001) PTRACERS_SOM_Advection = /* tracer uses SOM advection scheme */
(PID.TID 0000.0001)                   F
(PID.TID 0000.0001)     ;
(PID.TID 0000.0001) PTRACERS_ImplVertAdv = /* implicit vert. advection flag */
(PID.TID 0000.0001)                   F
(PID.TID 0000.0001)     ;
(PID.TID 0000.0001) PTRACERS_MultiDimAdv = /* tracer uses Multi-Dim advection */
(PID.TID 0000.0001)                   T
(PID.TID 0000.0001)     ;
(PID.TID 0000.0001) PTRACERS_AdamsBashGtr = /* apply AB on tracer tendency */
(PID.TID 0000.0001)                   F
(PID.TID 0000.0001)     ;
(PID.TID 0000.0001) PTRACERS_AdamsBash_Tr = /* apply AB on passive tracer */
(PID.TID 0000.0001)                   F
(PID.TID 0000.0001)     ;
(PID.TID 0000.0001) PTRACERS_diffKh = /* Laplacian Diffusivity */
(PID.TID 0000.0001)                 0.000000000000000E+00
(PID.TID 0000.0001)     ;
(PID.TID 0000.0001) PTRACERS_diffK4 = /* Biharmonic Diffusivity */
(PID.TID 0000.0001)                 0.000000000000000E+00
(PID.TID 0000.0001)     ;
(PID.TID 0000.0001) PTRACERS_diffKrNr = /* Vertical Diffusivity */
(PID.TID 0000.0001)    35 @  1.000000000000000E-05              /* K =  1: 35 */
(PID.TID 0000.0001)     ;
(PID.TID 0000.0001) PTRACERS_useGMRedi = /* apply GM-Redi */
(PID.TID 0000.0001)                   F
(PID.TID 0000.0001)     ;
(PID.TID 0000.0001) PTRACERS_useDWNSLP = /* apply DOWN-SLOPE Flow */
(PID.TID 0000.0001)                   F
(PID.TID 0000.0001)     ;
(PID.TID 0000.0001) PTRACERS_useKPP = /* apply KPP scheme */
(PID.TID 0000.0001)                   F
(PID.TID 0000.0001)     ;
(PID.TID 0000.0001) PTRACERS_ref = /* Reference vertical profile */
(PID.TID 0000.0001)    35 @  0.000000000000000E+00              /* K =  1: 35 */
(PID.TID 0000.0001)     ;
(PID.TID 0000.0001) PTRACERS_EvPrRn =/* tracer conc. in Evap. & Rain */
(PID.TID 0000.0001)                 1.234567000000000E+05
(PID.TID 0000.0001)     ;
(PID.TID 0000.0001)  -----------------------------------
(PID.TID 0000.0001)  tracer number :   44
(PID.TID 0000.0001) PTRACERS_names = /* Tracer short name */
(PID.TID 0000.0001)               'c26'
(PID.TID 0000.0001)     ;
(PID.TID 0000.0001) PTRACERS_long_names = /* Tracer long name */
(PID.TID 0000.0001)               ''
(PID.TID 0000.0001)     ;
(PID.TID 0000.0001) PTRACERS_ioLabel = /* tracer IO Label */
(PID.TID 0000.0001)               '44'
(PID.TID 0000.0001)     ;
(PID.TID 0000.0001) PTRACERS_advScheme = /* Advection Scheme */
(PID.TID 0000.0001)                      33
(PID.TID 0000.0001)     ;
(PID.TID 0000.0001) PTRACERS_SOM_Advection = /* tracer uses SOM advection scheme */
(PID.TID 0000.0001)                   F
(PID.TID 0000.0001)     ;
(PID.TID 0000.0001) PTRACERS_ImplVertAdv = /* implicit vert. advection flag */
(PID.TID 0000.0001)                   F
(PID.TID 0000.0001)     ;
(PID.TID 0000.0001) PTRACERS_MultiDimAdv = /* tracer uses Multi-Dim advection */
(PID.TID 0000.0001)                   T
(PID.TID 0000.0001)     ;
(PID.TID 0000.0001) PTRACERS_AdamsBashGtr = /* apply AB on tracer tendency */
(PID.TID 0000.0001)                   F
(PID.TID 0000.0001)     ;
(PID.TID 0000.0001) PTRACERS_AdamsBash_Tr = /* apply AB on passive tracer */
(PID.TID 0000.0001)                   F
(PID.TID 0000.0001)     ;
(PID.TID 0000.0001) PTRACERS_diffKh = /* Laplacian Diffusivity */
(PID.TID 0000.0001)                 0.000000000000000E+00
(PID.TID 0000.0001)     ;
(PID.TID 0000.0001) PTRACERS_diffK4 = /* Biharmonic Diffusivity */
(PID.TID 0000.0001)                 0.000000000000000E+00
(PID.TID 0000.0001)     ;
(PID.TID 0000.0001) PTRACERS_diffKrNr = /* Vertical Diffusivity */
(PID.TID 0000.0001)    35 @  1.000000000000000E-05              /* K =  1: 35 */
(PID.TID 0000.0001)     ;
(PID.TID 0000.0001) PTRACERS_useGMRedi = /* apply GM-Redi */
(PID.TID 0000.0001)                   F
(PID.TID 0000.0001)     ;
(PID.TID 0000.0001) PTRACERS_useDWNSLP = /* apply DOWN-SLOPE Flow */
(PID.TID 0000.0001)                   F
(PID.TID 0000.0001)     ;
(PID.TID 0000.0001) PTRACERS_useKPP = /* apply KPP scheme */
(PID.TID 0000.0001)                   F
(PID.TID 0000.0001)     ;
(PID.TID 0000.0001) PTRACERS_ref = /* Reference vertical profile */
(PID.TID 0000.0001)    35 @  0.000000000000000E+00              /* K =  1: 35 */
(PID.TID 0000.0001)     ;
(PID.TID 0000.0001) PTRACERS_EvPrRn =/* tracer conc. in Evap. & Rain */
(PID.TID 0000.0001)                 1.234567000000000E+05
(PID.TID 0000.0001)     ;
(PID.TID 0000.0001)  -----------------------------------
(PID.TID 0000.0001)  tracer number :   45
(PID.TID 0000.0001) PTRACERS_names = /* Tracer short name */
(PID.TID 0000.0001)               'c27'
(PID.TID 0000.0001)     ;
(PID.TID 0000.0001) PTRACERS_long_names = /* Tracer long name */
(PID.TID 0000.0001)               ''
(PID.TID 0000.0001)     ;
(PID.TID 0000.0001) PTRACERS_ioLabel = /* tracer IO Label */
(PID.TID 0000.0001)               '45'
(PID.TID 0000.0001)     ;
(PID.TID 0000.0001) PTRACERS_advScheme = /* Advection Scheme */
(PID.TID 0000.0001)                      33
(PID.TID 0000.0001)     ;
(PID.TID 0000.0001) PTRACERS_SOM_Advection = /* tracer uses SOM advection scheme */
(PID.TID 0000.0001)                   F
(PID.TID 0000.0001)     ;
(PID.TID 0000.0001) PTRACERS_ImplVertAdv = /* implicit vert. advection flag */
(PID.TID 0000.0001)                   F
(PID.TID 0000.0001)     ;
(PID.TID 0000.0001) PTRACERS_MultiDimAdv = /* tracer uses Multi-Dim advection */
(PID.TID 0000.0001)                   T
(PID.TID 0000.0001)     ;
(PID.TID 0000.0001) PTRACERS_AdamsBashGtr = /* apply AB on tracer tendency */
(PID.TID 0000.0001)                   F
(PID.TID 0000.0001)     ;
(PID.TID 0000.0001) PTRACERS_AdamsBash_Tr = /* apply AB on passive tracer */
(PID.TID 0000.0001)                   F
(PID.TID 0000.0001)     ;
(PID.TID 0000.0001) PTRACERS_diffKh = /* Laplacian Diffusivity */
(PID.TID 0000.0001)                 0.000000000000000E+00
(PID.TID 0000.0001)     ;
(PID.TID 0000.0001) PTRACERS_diffK4 = /* Biharmonic Diffusivity */
(PID.TID 0000.0001)                 0.000000000000000E+00
(PID.TID 0000.0001)     ;
(PID.TID 0000.0001) PTRACERS_diffKrNr = /* Vertical Diffusivity */
(PID.TID 0000.0001)    35 @  1.000000000000000E-05              /* K =  1: 35 */
(PID.TID 0000.0001)     ;
(PID.TID 0000.0001) PTRACERS_useGMRedi = /* apply GM-Redi */
(PID.TID 0000.0001)                   F
(PID.TID 0000.0001)     ;
(PID.TID 0000.0001) PTRACERS_useDWNSLP = /* apply DOWN-SLOPE Flow */
(PID.TID 0000.0001)                   F
(PID.TID 0000.0001)     ;
(PID.TID 0000.0001) PTRACERS_useKPP = /* apply KPP scheme */
(PID.TID 0000.0001)                   F
(PID.TID 0000.0001)     ;
(PID.TID 0000.0001) PTRACERS_ref = /* Reference vertical profile */
(PID.TID 0000.0001)    35 @  0.000000000000000E+00              /* K =  1: 35 */
(PID.TID 0000.0001)     ;
(PID.TID 0000.0001) PTRACERS_EvPrRn =/* tracer conc. in Evap. & Rain */
(PID.TID 0000.0001)                 1.234567000000000E+05
(PID.TID 0000.0001)     ;
(PID.TID 0000.0001)  -----------------------------------
(PID.TID 0000.0001)  tracer number :   46
(PID.TID 0000.0001) PTRACERS_names = /* Tracer short name */
(PID.TID 0000.0001)               'c28'
(PID.TID 0000.0001)     ;
(PID.TID 0000.0001) PTRACERS_long_names = /* Tracer long name */
(PID.TID 0000.0001)               ''
(PID.TID 0000.0001)     ;
(PID.TID 0000.0001) PTRACERS_ioLabel = /* tracer IO Label */
(PID.TID 0000.0001)               '46'
(PID.TID 0000.0001)     ;
(PID.TID 0000.0001) PTRACERS_advScheme = /* Advection Scheme */
(PID.TID 0000.0001)                      33
(PID.TID 0000.0001)     ;
(PID.TID 0000.0001) PTRACERS_SOM_Advection = /* tracer uses SOM advection scheme */
(PID.TID 0000.0001)                   F
(PID.TID 0000.0001)     ;
(PID.TID 0000.0001) PTRACERS_ImplVertAdv = /* implicit vert. advection flag */
(PID.TID 0000.0001)                   F
(PID.TID 0000.0001)     ;
(PID.TID 0000.0001) PTRACERS_MultiDimAdv = /* tracer uses Multi-Dim advection */
(PID.TID 0000.0001)                   T
(PID.TID 0000.0001)     ;
(PID.TID 0000.0001) PTRACERS_AdamsBashGtr = /* apply AB on tracer tendency */
(PID.TID 0000.0001)                   F
(PID.TID 0000.0001)     ;
(PID.TID 0000.0001) PTRACERS_AdamsBash_Tr = /* apply AB on passive tracer */
(PID.TID 0000.0001)                   F
(PID.TID 0000.0001)     ;
(PID.TID 0000.0001) PTRACERS_diffKh = /* Laplacian Diffusivity */
(PID.TID 0000.0001)                 0.000000000000000E+00
(PID.TID 0000.0001)     ;
(PID.TID 0000.0001) PTRACERS_diffK4 = /* Biharmonic Diffusivity */
(PID.TID 0000.0001)                 0.000000000000000E+00
(PID.TID 0000.0001)     ;
(PID.TID 0000.0001) PTRACERS_diffKrNr = /* Vertical Diffusivity */
(PID.TID 0000.0001)    35 @  1.000000000000000E-05              /* K =  1: 35 */
(PID.TID 0000.0001)     ;
(PID.TID 0000.0001) PTRACERS_useGMRedi = /* apply GM-Redi */
(PID.TID 0000.0001)                   F
(PID.TID 0000.0001)     ;
(PID.TID 0000.0001) PTRACERS_useDWNSLP = /* apply DOWN-SLOPE Flow */
(PID.TID 0000.0001)                   F
(PID.TID 0000.0001)     ;
(PID.TID 0000.0001) PTRACERS_useKPP = /* apply KPP scheme */
(PID.TID 0000.0001)                   F
(PID.TID 0000.0001)     ;
(PID.TID 0000.0001) PTRACERS_ref = /* Reference vertical profile */
(PID.TID 0000.0001)    35 @  0.000000000000000E+00              /* K =  1: 35 */
(PID.TID 0000.0001)     ;
(PID.TID 0000.0001) PTRACERS_EvPrRn =/* tracer conc. in Evap. & Rain */
(PID.TID 0000.0001)                 1.234567000000000E+05
(PID.TID 0000.0001)     ;
(PID.TID 0000.0001)  -----------------------------------
(PID.TID 0000.0001)  tracer number :   47
(PID.TID 0000.0001) PTRACERS_names = /* Tracer short name */
(PID.TID 0000.0001)               'c29'
(PID.TID 0000.0001)     ;
(PID.TID 0000.0001) PTRACERS_long_names = /* Tracer long name */
(PID.TID 0000.0001)               ''
(PID.TID 0000.0001)     ;
(PID.TID 0000.0001) PTRACERS_ioLabel = /* tracer IO Label */
(PID.TID 0000.0001)               '47'
(PID.TID 0000.0001)     ;
(PID.TID 0000.0001) PTRACERS_advScheme = /* Advection Scheme */
(PID.TID 0000.0001)                      33
(PID.TID 0000.0001)     ;
(PID.TID 0000.0001) PTRACERS_SOM_Advection = /* tracer uses SOM advection scheme */
(PID.TID 0000.0001)                   F
(PID.TID 0000.0001)     ;
(PID.TID 0000.0001) PTRACERS_ImplVertAdv = /* implicit vert. advection flag */
(PID.TID 0000.0001)                   F
(PID.TID 0000.0001)     ;
(PID.TID 0000.0001) PTRACERS_MultiDimAdv = /* tracer uses Multi-Dim advection */
(PID.TID 0000.0001)                   T
(PID.TID 0000.0001)     ;
(PID.TID 0000.0001) PTRACERS_AdamsBashGtr = /* apply AB on tracer tendency */
(PID.TID 0000.0001)                   F
(PID.TID 0000.0001)     ;
(PID.TID 0000.0001) PTRACERS_AdamsBash_Tr = /* apply AB on passive tracer */
(PID.TID 0000.0001)                   F
(PID.TID 0000.0001)     ;
(PID.TID 0000.0001) PTRACERS_diffKh = /* Laplacian Diffusivity */
(PID.TID 0000.0001)                 0.000000000000000E+00
(PID.TID 0000.0001)     ;
(PID.TID 0000.0001) PTRACERS_diffK4 = /* Biharmonic Diffusivity */
(PID.TID 0000.0001)                 0.000000000000000E+00
(PID.TID 0000.0001)     ;
(PID.TID 0000.0001) PTRACERS_diffKrNr = /* Vertical Diffusivity */
(PID.TID 0000.0001)    35 @  1.000000000000000E-05              /* K =  1: 35 */
(PID.TID 0000.0001)     ;
(PID.TID 0000.0001) PTRACERS_useGMRedi = /* apply GM-Redi */
(PID.TID 0000.0001)                   F
(PID.TID 0000.0001)     ;
(PID.TID 0000.0001) PTRACERS_useDWNSLP = /* apply DOWN-SLOPE Flow */
(PID.TID 0000.0001)                   F
(PID.TID 0000.0001)     ;
(PID.TID 0000.0001) PTRACERS_useKPP = /* apply KPP scheme */
(PID.TID 0000.0001)                   F
(PID.TID 0000.0001)     ;
(PID.TID 0000.0001) PTRACERS_ref = /* Reference vertical profile */
(PID.TID 0000.0001)    35 @  0.000000000000000E+00              /* K =  1: 35 */
(PID.TID 0000.0001)     ;
(PID.TID 0000.0001) PTRACERS_EvPrRn =/* tracer conc. in Evap. & Rain */
(PID.TID 0000.0001)                 1.234567000000000E+05
(PID.TID 0000.0001)     ;
(PID.TID 0000.0001)  -----------------------------------
(PID.TID 0000.0001)  tracer number :   48
(PID.TID 0000.0001) PTRACERS_names = /* Tracer short name */
(PID.TID 0000.0001)               'c30'
(PID.TID 0000.0001)     ;
(PID.TID 0000.0001) PTRACERS_long_names = /* Tracer long name */
(PID.TID 0000.0001)               ''
(PID.TID 0000.0001)     ;
(PID.TID 0000.0001) PTRACERS_ioLabel = /* tracer IO Label */
(PID.TID 0000.0001)               '48'
(PID.TID 0000.0001)     ;
(PID.TID 0000.0001) PTRACERS_advScheme = /* Advection Scheme */
(PID.TID 0000.0001)                      33
(PID.TID 0000.0001)     ;
(PID.TID 0000.0001) PTRACERS_SOM_Advection = /* tracer uses SOM advection scheme */
(PID.TID 0000.0001)                   F
(PID.TID 0000.0001)     ;
(PID.TID 0000.0001) PTRACERS_ImplVertAdv = /* implicit vert. advection flag */
(PID.TID 0000.0001)                   F
(PID.TID 0000.0001)     ;
(PID.TID 0000.0001) PTRACERS_MultiDimAdv = /* tracer uses Multi-Dim advection */
(PID.TID 0000.0001)                   T
(PID.TID 0000.0001)     ;
(PID.TID 0000.0001) PTRACERS_AdamsBashGtr = /* apply AB on tracer tendency */
(PID.TID 0000.0001)                   F
(PID.TID 0000.0001)     ;
(PID.TID 0000.0001) PTRACERS_AdamsBash_Tr = /* apply AB on passive tracer */
(PID.TID 0000.0001)                   F
(PID.TID 0000.0001)     ;
(PID.TID 0000.0001) PTRACERS_diffKh = /* Laplacian Diffusivity */
(PID.TID 0000.0001)                 0.000000000000000E+00
(PID.TID 0000.0001)     ;
(PID.TID 0000.0001) PTRACERS_diffK4 = /* Biharmonic Diffusivity */
(PID.TID 0000.0001)                 0.000000000000000E+00
(PID.TID 0000.0001)     ;
(PID.TID 0000.0001) PTRACERS_diffKrNr = /* Vertical Diffusivity */
(PID.TID 0000.0001)    35 @  1.000000000000000E-05              /* K =  1: 35 */
(PID.TID 0000.0001)     ;
(PID.TID 0000.0001) PTRACERS_useGMRedi = /* apply GM-Redi */
(PID.TID 0000.0001)                   F
(PID.TID 0000.0001)     ;
(PID.TID 0000.0001) PTRACERS_useDWNSLP = /* apply DOWN-SLOPE Flow */
(PID.TID 0000.0001)                   F
(PID.TID 0000.0001)     ;
(PID.TID 0000.0001) PTRACERS_useKPP = /* apply KPP scheme */
(PID.TID 0000.0001)                   F
(PID.TID 0000.0001)     ;
(PID.TID 0000.0001) PTRACERS_ref = /* Reference vertical profile */
(PID.TID 0000.0001)    35 @  0.000000000000000E+00              /* K =  1: 35 */
(PID.TID 0000.0001)     ;
(PID.TID 0000.0001) PTRACERS_EvPrRn =/* tracer conc. in Evap. & Rain */
(PID.TID 0000.0001)                 1.234567000000000E+05
(PID.TID 0000.0001)     ;
(PID.TID 0000.0001)  -----------------------------------
(PID.TID 0000.0001)  tracer number :   49
(PID.TID 0000.0001) PTRACERS_names = /* Tracer short name */
(PID.TID 0000.0001)               'c31'
(PID.TID 0000.0001)     ;
(PID.TID 0000.0001) PTRACERS_long_names = /* Tracer long name */
(PID.TID 0000.0001)               ''
(PID.TID 0000.0001)     ;
(PID.TID 0000.0001) PTRACERS_ioLabel = /* tracer IO Label */
(PID.TID 0000.0001)               '49'
(PID.TID 0000.0001)     ;
(PID.TID 0000.0001) PTRACERS_advScheme = /* Advection Scheme */
(PID.TID 0000.0001)                      33
(PID.TID 0000.0001)     ;
(PID.TID 0000.0001) PTRACERS_SOM_Advection = /* tracer uses SOM advection scheme */
(PID.TID 0000.0001)                   F
(PID.TID 0000.0001)     ;
(PID.TID 0000.0001) PTRACERS_ImplVertAdv = /* implicit vert. advection flag */
(PID.TID 0000.0001)                   F
(PID.TID 0000.0001)     ;
(PID.TID 0000.0001) PTRACERS_MultiDimAdv = /* tracer uses Multi-Dim advection */
(PID.TID 0000.0001)                   T
(PID.TID 0000.0001)     ;
(PID.TID 0000.0001) PTRACERS_AdamsBashGtr = /* apply AB on tracer tendency */
(PID.TID 0000.0001)                   F
(PID.TID 0000.0001)     ;
(PID.TID 0000.0001) PTRACERS_AdamsBash_Tr = /* apply AB on passive tracer */
(PID.TID 0000.0001)                   F
(PID.TID 0000.0001)     ;
(PID.TID 0000.0001) PTRACERS_diffKh = /* Laplacian Diffusivity */
(PID.TID 0000.0001)                 0.000000000000000E+00
(PID.TID 0000.0001)     ;
(PID.TID 0000.0001) PTRACERS_diffK4 = /* Biharmonic Diffusivity */
(PID.TID 0000.0001)                 0.000000000000000E+00
(PID.TID 0000.0001)     ;
(PID.TID 0000.0001) PTRACERS_diffKrNr = /* Vertical Diffusivity */
(PID.TID 0000.0001)    35 @  1.000000000000000E-05              /* K =  1: 35 */
(PID.TID 0000.0001)     ;
(PID.TID 0000.0001) PTRACERS_useGMRedi = /* apply GM-Redi */
(PID.TID 0000.0001)                   F
(PID.TID 0000.0001)     ;
(PID.TID 0000.0001) PTRACERS_useDWNSLP = /* apply DOWN-SLOPE Flow */
(PID.TID 0000.0001)                   F
(PID.TID 0000.0001)     ;
(PID.TID 0000.0001) PTRACERS_useKPP = /* apply KPP scheme */
(PID.TID 0000.0001)                   F
(PID.TID 0000.0001)     ;
(PID.TID 0000.0001) PTRACERS_ref = /* Reference vertical profile */
(PID.TID 0000.0001)    35 @  0.000000000000000E+00              /* K =  1: 35 */
(PID.TID 0000.0001)     ;
(PID.TID 0000.0001) PTRACERS_EvPrRn =/* tracer conc. in Evap. & Rain */
(PID.TID 0000.0001)                 1.234567000000000E+05
(PID.TID 0000.0001)     ;
(PID.TID 0000.0001)  -----------------------------------
(PID.TID 0000.0001)  tracer number :   50
(PID.TID 0000.0001) PTRACERS_names = /* Tracer short name */
(PID.TID 0000.0001)               'c32'
(PID.TID 0000.0001)     ;
(PID.TID 0000.0001) PTRACERS_long_names = /* Tracer long name */
(PID.TID 0000.0001)               ''
(PID.TID 0000.0001)     ;
(PID.TID 0000.0001) PTRACERS_ioLabel = /* tracer IO Label */
(PID.TID 0000.0001)               '50'
(PID.TID 0000.0001)     ;
(PID.TID 0000.0001) PTRACERS_advScheme = /* Advection Scheme */
(PID.TID 0000.0001)                      33
(PID.TID 0000.0001)     ;
(PID.TID 0000.0001) PTRACERS_SOM_Advection = /* tracer uses SOM advection scheme */
(PID.TID 0000.0001)                   F
(PID.TID 0000.0001)     ;
(PID.TID 0000.0001) PTRACERS_ImplVertAdv = /* implicit vert. advection flag */
(PID.TID 0000.0001)                   F
(PID.TID 0000.0001)     ;
(PID.TID 0000.0001) PTRACERS_MultiDimAdv = /* tracer uses Multi-Dim advection */
(PID.TID 0000.0001)                   T
(PID.TID 0000.0001)     ;
(PID.TID 0000.0001) PTRACERS_AdamsBashGtr = /* apply AB on tracer tendency */
(PID.TID 0000.0001)                   F
(PID.TID 0000.0001)     ;
(PID.TID 0000.0001) PTRACERS_AdamsBash_Tr = /* apply AB on passive tracer */
(PID.TID 0000.0001)                   F
(PID.TID 0000.0001)     ;
(PID.TID 0000.0001) PTRACERS_diffKh = /* Laplacian Diffusivity */
(PID.TID 0000.0001)                 0.000000000000000E+00
(PID.TID 0000.0001)     ;
(PID.TID 0000.0001) PTRACERS_diffK4 = /* Biharmonic Diffusivity */
(PID.TID 0000.0001)                 0.000000000000000E+00
(PID.TID 0000.0001)     ;
(PID.TID 0000.0001) PTRACERS_diffKrNr = /* Vertical Diffusivity */
(PID.TID 0000.0001)    35 @  1.000000000000000E-05              /* K =  1: 35 */
(PID.TID 0000.0001)     ;
(PID.TID 0000.0001) PTRACERS_useGMRedi = /* apply GM-Redi */
(PID.TID 0000.0001)                   F
(PID.TID 0000.0001)     ;
(PID.TID 0000.0001) PTRACERS_useDWNSLP = /* apply DOWN-SLOPE Flow */
(PID.TID 0000.0001)                   F
(PID.TID 0000.0001)     ;
(PID.TID 0000.0001) PTRACERS_useKPP = /* apply KPP scheme */
(PID.TID 0000.0001)                   F
(PID.TID 0000.0001)     ;
(PID.TID 0000.0001) PTRACERS_ref = /* Reference vertical profile */
(PID.TID 0000.0001)    35 @  0.000000000000000E+00              /* K =  1: 35 */
(PID.TID 0000.0001)     ;
(PID.TID 0000.0001) PTRACERS_EvPrRn =/* tracer conc. in Evap. & Rain */
(PID.TID 0000.0001)                 1.234567000000000E+05
(PID.TID 0000.0001)     ;
(PID.TID 0000.0001)  -----------------------------------
(PID.TID 0000.0001)  tracer number :   51
(PID.TID 0000.0001) PTRACERS_names = /* Tracer short name */
(PID.TID 0000.0001)               'c33'
(PID.TID 0000.0001)     ;
(PID.TID 0000.0001) PTRACERS_long_names = /* Tracer long name */
(PID.TID 0000.0001)               ''
(PID.TID 0000.0001)     ;
(PID.TID 0000.0001) PTRACERS_ioLabel = /* tracer IO Label */
(PID.TID 0000.0001)               '51'
(PID.TID 0000.0001)     ;
(PID.TID 0000.0001) PTRACERS_advScheme = /* Advection Scheme */
(PID.TID 0000.0001)                      33
(PID.TID 0000.0001)     ;
(PID.TID 0000.0001) PTRACERS_SOM_Advection = /* tracer uses SOM advection scheme */
(PID.TID 0000.0001)                   F
(PID.TID 0000.0001)     ;
(PID.TID 0000.0001) PTRACERS_ImplVertAdv = /* implicit vert. advection flag */
(PID.TID 0000.0001)                   F
(PID.TID 0000.0001)     ;
(PID.TID 0000.0001) PTRACERS_MultiDimAdv = /* tracer uses Multi-Dim advection */
(PID.TID 0000.0001)                   T
(PID.TID 0000.0001)     ;
(PID.TID 0000.0001) PTRACERS_AdamsBashGtr = /* apply AB on tracer tendency */
(PID.TID 0000.0001)                   F
(PID.TID 0000.0001)     ;
(PID.TID 0000.0001) PTRACERS_AdamsBash_Tr = /* apply AB on passive tracer */
(PID.TID 0000.0001)                   F
(PID.TID 0000.0001)     ;
(PID.TID 0000.0001) PTRACERS_diffKh = /* Laplacian Diffusivity */
(PID.TID 0000.0001)                 0.000000000000000E+00
(PID.TID 0000.0001)     ;
(PID.TID 0000.0001) PTRACERS_diffK4 = /* Biharmonic Diffusivity */
(PID.TID 0000.0001)                 0.000000000000000E+00
(PID.TID 0000.0001)     ;
(PID.TID 0000.0001) PTRACERS_diffKrNr = /* Vertical Diffusivity */
(PID.TID 0000.0001)    35 @  1.000000000000000E-05              /* K =  1: 35 */
(PID.TID 0000.0001)     ;
(PID.TID 0000.0001) PTRACERS_useGMRedi = /* apply GM-Redi */
(PID.TID 0000.0001)                   F
(PID.TID 0000.0001)     ;
(PID.TID 0000.0001) PTRACERS_useDWNSLP = /* apply DOWN-SLOPE Flow */
(PID.TID 0000.0001)                   F
(PID.TID 0000.0001)     ;
(PID.TID 0000.0001) PTRACERS_useKPP = /* apply KPP scheme */
(PID.TID 0000.0001)                   F
(PID.TID 0000.0001)     ;
(PID.TID 0000.0001) PTRACERS_ref = /* Reference vertical profile */
(PID.TID 0000.0001)    35 @  0.000000000000000E+00              /* K =  1: 35 */
(PID.TID 0000.0001)     ;
(PID.TID 0000.0001) PTRACERS_EvPrRn =/* tracer conc. in Evap. & Rain */
(PID.TID 0000.0001)                 1.234567000000000E+05
(PID.TID 0000.0001)     ;
(PID.TID 0000.0001)  -----------------------------------
(PID.TID 0000.0001)  tracer number :   52
(PID.TID 0000.0001) PTRACERS_names = /* Tracer short name */
(PID.TID 0000.0001)               'c34'
(PID.TID 0000.0001)     ;
(PID.TID 0000.0001) PTRACERS_long_names = /* Tracer long name */
(PID.TID 0000.0001)               ''
(PID.TID 0000.0001)     ;
(PID.TID 0000.0001) PTRACERS_ioLabel = /* tracer IO Label */
(PID.TID 0000.0001)               '52'
(PID.TID 0000.0001)     ;
(PID.TID 0000.0001) PTRACERS_advScheme = /* Advection Scheme */
(PID.TID 0000.0001)                      33
(PID.TID 0000.0001)     ;
(PID.TID 0000.0001) PTRACERS_SOM_Advection = /* tracer uses SOM advection scheme */
(PID.TID 0000.0001)                   F
(PID.TID 0000.0001)     ;
(PID.TID 0000.0001) PTRACERS_ImplVertAdv = /* implicit vert. advection flag */
(PID.TID 0000.0001)                   F
(PID.TID 0000.0001)     ;
(PID.TID 0000.0001) PTRACERS_MultiDimAdv = /* tracer uses Multi-Dim advection */
(PID.TID 0000.0001)                   T
(PID.TID 0000.0001)     ;
(PID.TID 0000.0001) PTRACERS_AdamsBashGtr = /* apply AB on tracer tendency */
(PID.TID 0000.0001)                   F
(PID.TID 0000.0001)     ;
(PID.TID 0000.0001) PTRACERS_AdamsBash_Tr = /* apply AB on passive tracer */
(PID.TID 0000.0001)                   F
(PID.TID 0000.0001)     ;
(PID.TID 0000.0001) PTRACERS_diffKh = /* Laplacian Diffusivity */
(PID.TID 0000.0001)                 0.000000000000000E+00
(PID.TID 0000.0001)     ;
(PID.TID 0000.0001) PTRACERS_diffK4 = /* Biharmonic Diffusivity */
(PID.TID 0000.0001)                 0.000000000000000E+00
(PID.TID 0000.0001)     ;
(PID.TID 0000.0001) PTRACERS_diffKrNr = /* Vertical Diffusivity */
(PID.TID 0000.0001)    35 @  1.000000000000000E-05              /* K =  1: 35 */
(PID.TID 0000.0001)     ;
(PID.TID 0000.0001) PTRACERS_useGMRedi = /* apply GM-Redi */
(PID.TID 0000.0001)                   F
(PID.TID 0000.0001)     ;
(PID.TID 0000.0001) PTRACERS_useDWNSLP = /* apply DOWN-SLOPE Flow */
(PID.TID 0000.0001)                   F
(PID.TID 0000.0001)     ;
(PID.TID 0000.0001) PTRACERS_useKPP = /* apply KPP scheme */
(PID.TID 0000.0001)                   F
(PID.TID 0000.0001)     ;
(PID.TID 0000.0001) PTRACERS_ref = /* Reference vertical profile */
(PID.TID 0000.0001)    35 @  0.000000000000000E+00              /* K =  1: 35 */
(PID.TID 0000.0001)     ;
(PID.TID 0000.0001) PTRACERS_EvPrRn =/* tracer conc. in Evap. & Rain */
(PID.TID 0000.0001)                 1.234567000000000E+05
(PID.TID 0000.0001)     ;
(PID.TID 0000.0001)  -----------------------------------
(PID.TID 0000.0001)  tracer number :   53
(PID.TID 0000.0001) PTRACERS_names = /* Tracer short name */
(PID.TID 0000.0001)               'c35'
(PID.TID 0000.0001)     ;
(PID.TID 0000.0001) PTRACERS_long_names = /* Tracer long name */
(PID.TID 0000.0001)               ''
(PID.TID 0000.0001)     ;
(PID.TID 0000.0001) PTRACERS_ioLabel = /* tracer IO Label */
(PID.TID 0000.0001)               '53'
(PID.TID 0000.0001)     ;
(PID.TID 0000.0001) PTRACERS_advScheme = /* Advection Scheme */
(PID.TID 0000.0001)                      33
(PID.TID 0000.0001)     ;
(PID.TID 0000.0001) PTRACERS_SOM_Advection = /* tracer uses SOM advection scheme */
(PID.TID 0000.0001)                   F
(PID.TID 0000.0001)     ;
(PID.TID 0000.0001) PTRACERS_ImplVertAdv = /* implicit vert. advection flag */
(PID.TID 0000.0001)                   F
(PID.TID 0000.0001)     ;
(PID.TID 0000.0001) PTRACERS_MultiDimAdv = /* tracer uses Multi-Dim advection */
(PID.TID 0000.0001)                   T
(PID.TID 0000.0001)     ;
(PID.TID 0000.0001) PTRACERS_AdamsBashGtr = /* apply AB on tracer tendency */
(PID.TID 0000.0001)                   F
(PID.TID 0000.0001)     ;
(PID.TID 0000.0001) PTRACERS_AdamsBash_Tr = /* apply AB on passive tracer */
(PID.TID 0000.0001)                   F
(PID.TID 0000.0001)     ;
(PID.TID 0000.0001) PTRACERS_diffKh = /* Laplacian Diffusivity */
(PID.TID 0000.0001)                 0.000000000000000E+00
(PID.TID 0000.0001)     ;
(PID.TID 0000.0001) PTRACERS_diffK4 = /* Biharmonic Diffusivity */
(PID.TID 0000.0001)                 0.000000000000000E+00
(PID.TID 0000.0001)     ;
(PID.TID 0000.0001) PTRACERS_diffKrNr = /* Vertical Diffusivity */
(PID.TID 0000.0001)    35 @  1.000000000000000E-05              /* K =  1: 35 */
(PID.TID 0000.0001)     ;
(PID.TID 0000.0001) PTRACERS_useGMRedi = /* apply GM-Redi */
(PID.TID 0000.0001)                   F
(PID.TID 0000.0001)     ;
(PID.TID 0000.0001) PTRACERS_useDWNSLP = /* apply DOWN-SLOPE Flow */
(PID.TID 0000.0001)                   F
(PID.TID 0000.0001)     ;
(PID.TID 0000.0001) PTRACERS_useKPP = /* apply KPP scheme */
(PID.TID 0000.0001)                   F
(PID.TID 0000.0001)     ;
(PID.TID 0000.0001) PTRACERS_ref = /* Reference vertical profile */
(PID.TID 0000.0001)    35 @  0.000000000000000E+00              /* K =  1: 35 */
(PID.TID 0000.0001)     ;
(PID.TID 0000.0001) PTRACERS_EvPrRn =/* tracer conc. in Evap. & Rain */
(PID.TID 0000.0001)                 1.234567000000000E+05
(PID.TID 0000.0001)     ;
(PID.TID 0000.0001)  -----------------------------------
(PID.TID 0000.0001)  tracer number :   54
(PID.TID 0000.0001) PTRACERS_names = /* Tracer short name */
(PID.TID 0000.0001)               'c36'
(PID.TID 0000.0001)     ;
(PID.TID 0000.0001) PTRACERS_long_names = /* Tracer long name */
(PID.TID 0000.0001)               ''
(PID.TID 0000.0001)     ;
(PID.TID 0000.0001) PTRACERS_ioLabel = /* tracer IO Label */
(PID.TID 0000.0001)               '54'
(PID.TID 0000.0001)     ;
(PID.TID 0000.0001) PTRACERS_advScheme = /* Advection Scheme */
(PID.TID 0000.0001)                      33
(PID.TID 0000.0001)     ;
(PID.TID 0000.0001) PTRACERS_SOM_Advection = /* tracer uses SOM advection scheme */
(PID.TID 0000.0001)                   F
(PID.TID 0000.0001)     ;
(PID.TID 0000.0001) PTRACERS_ImplVertAdv = /* implicit vert. advection flag */
(PID.TID 0000.0001)                   F
(PID.TID 0000.0001)     ;
(PID.TID 0000.0001) PTRACERS_MultiDimAdv = /* tracer uses Multi-Dim advection */
(PID.TID 0000.0001)                   T
(PID.TID 0000.0001)     ;
(PID.TID 0000.0001) PTRACERS_AdamsBashGtr = /* apply AB on tracer tendency */
(PID.TID 0000.0001)                   F
(PID.TID 0000.0001)     ;
(PID.TID 0000.0001) PTRACERS_AdamsBash_Tr = /* apply AB on passive tracer */
(PID.TID 0000.0001)                   F
(PID.TID 0000.0001)     ;
(PID.TID 0000.0001) PTRACERS_diffKh = /* Laplacian Diffusivity */
(PID.TID 0000.0001)                 0.000000000000000E+00
(PID.TID 0000.0001)     ;
(PID.TID 0000.0001) PTRACERS_diffK4 = /* Biharmonic Diffusivity */
(PID.TID 0000.0001)                 0.000000000000000E+00
(PID.TID 0000.0001)     ;
(PID.TID 0000.0001) PTRACERS_diffKrNr = /* Vertical Diffusivity */
(PID.TID 0000.0001)    35 @  1.000000000000000E-05              /* K =  1: 35 */
(PID.TID 0000.0001)     ;
(PID.TID 0000.0001) PTRACERS_useGMRedi = /* apply GM-Redi */
(PID.TID 0000.0001)                   F
(PID.TID 0000.0001)     ;
(PID.TID 0000.0001) PTRACERS_useDWNSLP = /* apply DOWN-SLOPE Flow */
(PID.TID 0000.0001)                   F
(PID.TID 0000.0001)     ;
(PID.TID 0000.0001) PTRACERS_useKPP = /* apply KPP scheme */
(PID.TID 0000.0001)                   F
(PID.TID 0000.0001)     ;
(PID.TID 0000.0001) PTRACERS_ref = /* Reference vertical profile */
(PID.TID 0000.0001)    35 @  0.000000000000000E+00              /* K =  1: 35 */
(PID.TID 0000.0001)     ;
(PID.TID 0000.0001) PTRACERS_EvPrRn =/* tracer conc. in Evap. & Rain */
(PID.TID 0000.0001)                 1.234567000000000E+05
(PID.TID 0000.0001)     ;
(PID.TID 0000.0001)  -----------------------------------
(PID.TID 0000.0001)  tracer number :   55
(PID.TID 0000.0001) PTRACERS_names = /* Tracer short name */
(PID.TID 0000.0001)               'c37'
(PID.TID 0000.0001)     ;
(PID.TID 0000.0001) PTRACERS_long_names = /* Tracer long name */
(PID.TID 0000.0001)               ''
(PID.TID 0000.0001)     ;
(PID.TID 0000.0001) PTRACERS_ioLabel = /* tracer IO Label */
(PID.TID 0000.0001)               '55'
(PID.TID 0000.0001)     ;
(PID.TID 0000.0001) PTRACERS_advScheme = /* Advection Scheme */
(PID.TID 0000.0001)                      33
(PID.TID 0000.0001)     ;
(PID.TID 0000.0001) PTRACERS_SOM_Advection = /* tracer uses SOM advection scheme */
(PID.TID 0000.0001)                   F
(PID.TID 0000.0001)     ;
(PID.TID 0000.0001) PTRACERS_ImplVertAdv = /* implicit vert. advection flag */
(PID.TID 0000.0001)                   F
(PID.TID 0000.0001)     ;
(PID.TID 0000.0001) PTRACERS_MultiDimAdv = /* tracer uses Multi-Dim advection */
(PID.TID 0000.0001)                   T
(PID.TID 0000.0001)     ;
(PID.TID 0000.0001) PTRACERS_AdamsBashGtr = /* apply AB on tracer tendency */
(PID.TID 0000.0001)                   F
(PID.TID 0000.0001)     ;
(PID.TID 0000.0001) PTRACERS_AdamsBash_Tr = /* apply AB on passive tracer */
(PID.TID 0000.0001)                   F
(PID.TID 0000.0001)     ;
(PID.TID 0000.0001) PTRACERS_diffKh = /* Laplacian Diffusivity */
(PID.TID 0000.0001)                 0.000000000000000E+00
(PID.TID 0000.0001)     ;
(PID.TID 0000.0001) PTRACERS_diffK4 = /* Biharmonic Diffusivity */
(PID.TID 0000.0001)                 0.000000000000000E+00
(PID.TID 0000.0001)     ;
(PID.TID 0000.0001) PTRACERS_diffKrNr = /* Vertical Diffusivity */
(PID.TID 0000.0001)    35 @  1.000000000000000E-05              /* K =  1: 35 */
(PID.TID 0000.0001)     ;
(PID.TID 0000.0001) PTRACERS_useGMRedi = /* apply GM-Redi */
(PID.TID 0000.0001)                   F
(PID.TID 0000.0001)     ;
(PID.TID 0000.0001) PTRACERS_useDWNSLP = /* apply DOWN-SLOPE Flow */
(PID.TID 0000.0001)                   F
(PID.TID 0000.0001)     ;
(PID.TID 0000.0001) PTRACERS_useKPP = /* apply KPP scheme */
(PID.TID 0000.0001)                   F
(PID.TID 0000.0001)     ;
(PID.TID 0000.0001) PTRACERS_ref = /* Reference vertical profile */
(PID.TID 0000.0001)    35 @  0.000000000000000E+00              /* K =  1: 35 */
(PID.TID 0000.0001)     ;
(PID.TID 0000.0001) PTRACERS_EvPrRn =/* tracer conc. in Evap. & Rain */
(PID.TID 0000.0001)                 1.234567000000000E+05
(PID.TID 0000.0001)     ;
(PID.TID 0000.0001)  -----------------------------------
(PID.TID 0000.0001)  tracer number :   56
(PID.TID 0000.0001) PTRACERS_names = /* Tracer short name */
(PID.TID 0000.0001)               'c38'
(PID.TID 0000.0001)     ;
(PID.TID 0000.0001) PTRACERS_long_names = /* Tracer long name */
(PID.TID 0000.0001)               ''
(PID.TID 0000.0001)     ;
(PID.TID 0000.0001) PTRACERS_ioLabel = /* tracer IO Label */
(PID.TID 0000.0001)               '56'
(PID.TID 0000.0001)     ;
(PID.TID 0000.0001) PTRACERS_advScheme = /* Advection Scheme */
(PID.TID 0000.0001)                      33
(PID.TID 0000.0001)     ;
(PID.TID 0000.0001) PTRACERS_SOM_Advection = /* tracer uses SOM advection scheme */
(PID.TID 0000.0001)                   F
(PID.TID 0000.0001)     ;
(PID.TID 0000.0001) PTRACERS_ImplVertAdv = /* implicit vert. advection flag */
(PID.TID 0000.0001)                   F
(PID.TID 0000.0001)     ;
(PID.TID 0000.0001) PTRACERS_MultiDimAdv = /* tracer uses Multi-Dim advection */
(PID.TID 0000.0001)                   T
(PID.TID 0000.0001)     ;
(PID.TID 0000.0001) PTRACERS_AdamsBashGtr = /* apply AB on tracer tendency */
(PID.TID 0000.0001)                   F
(PID.TID 0000.0001)     ;
(PID.TID 0000.0001) PTRACERS_AdamsBash_Tr = /* apply AB on passive tracer */
(PID.TID 0000.0001)                   F
(PID.TID 0000.0001)     ;
(PID.TID 0000.0001) PTRACERS_diffKh = /* Laplacian Diffusivity */
(PID.TID 0000.0001)                 0.000000000000000E+00
(PID.TID 0000.0001)     ;
(PID.TID 0000.0001) PTRACERS_diffK4 = /* Biharmonic Diffusivity */
(PID.TID 0000.0001)                 0.000000000000000E+00
(PID.TID 0000.0001)     ;
(PID.TID 0000.0001) PTRACERS_diffKrNr = /* Vertical Diffusivity */
(PID.TID 0000.0001)    35 @  1.000000000000000E-05              /* K =  1: 35 */
(PID.TID 0000.0001)     ;
(PID.TID 0000.0001) PTRACERS_useGMRedi = /* apply GM-Redi */
(PID.TID 0000.0001)                   F
(PID.TID 0000.0001)     ;
(PID.TID 0000.0001) PTRACERS_useDWNSLP = /* apply DOWN-SLOPE Flow */
(PID.TID 0000.0001)                   F
(PID.TID 0000.0001)     ;
(PID.TID 0000.0001) PTRACERS_useKPP = /* apply KPP scheme */
(PID.TID 0000.0001)                   F
(PID.TID 0000.0001)     ;
(PID.TID 0000.0001) PTRACERS_ref = /* Reference vertical profile */
(PID.TID 0000.0001)    35 @  0.000000000000000E+00              /* K =  1: 35 */
(PID.TID 0000.0001)     ;
(PID.TID 0000.0001) PTRACERS_EvPrRn =/* tracer conc. in Evap. & Rain */
(PID.TID 0000.0001)                 1.234567000000000E+05
(PID.TID 0000.0001)     ;
(PID.TID 0000.0001)  -----------------------------------
(PID.TID 0000.0001)  tracer number :   57
(PID.TID 0000.0001) PTRACERS_names = /* Tracer short name */
(PID.TID 0000.0001)               'c39'
(PID.TID 0000.0001)     ;
(PID.TID 0000.0001) PTRACERS_long_names = /* Tracer long name */
(PID.TID 0000.0001)               ''
(PID.TID 0000.0001)     ;
(PID.TID 0000.0001) PTRACERS_ioLabel = /* tracer IO Label */
(PID.TID 0000.0001)               '57'
(PID.TID 0000.0001)     ;
(PID.TID 0000.0001) PTRACERS_advScheme = /* Advection Scheme */
(PID.TID 0000.0001)                      33
(PID.TID 0000.0001)     ;
(PID.TID 0000.0001) PTRACERS_SOM_Advection = /* tracer uses SOM advection scheme */
(PID.TID 0000.0001)                   F
(PID.TID 0000.0001)     ;
(PID.TID 0000.0001) PTRACERS_ImplVertAdv = /* implicit vert. advection flag */
(PID.TID 0000.0001)                   F
(PID.TID 0000.0001)     ;
(PID.TID 0000.0001) PTRACERS_MultiDimAdv = /* tracer uses Multi-Dim advection */
(PID.TID 0000.0001)                   T
(PID.TID 0000.0001)     ;
(PID.TID 0000.0001) PTRACERS_AdamsBashGtr = /* apply AB on tracer tendency */
(PID.TID 0000.0001)                   F
(PID.TID 0000.0001)     ;
(PID.TID 0000.0001) PTRACERS_AdamsBash_Tr = /* apply AB on passive tracer */
(PID.TID 0000.0001)                   F
(PID.TID 0000.0001)     ;
(PID.TID 0000.0001) PTRACERS_diffKh = /* Laplacian Diffusivity */
(PID.TID 0000.0001)                 0.000000000000000E+00
(PID.TID 0000.0001)     ;
(PID.TID 0000.0001) PTRACERS_diffK4 = /* Biharmonic Diffusivity */
(PID.TID 0000.0001)                 0.000000000000000E+00
(PID.TID 0000.0001)     ;
(PID.TID 0000.0001) PTRACERS_diffKrNr = /* Vertical Diffusivity */
(PID.TID 0000.0001)    35 @  1.000000000000000E-05              /* K =  1: 35 */
(PID.TID 0000.0001)     ;
(PID.TID 0000.0001) PTRACERS_useGMRedi = /* apply GM-Redi */
(PID.TID 0000.0001)                   F
(PID.TID 0000.0001)     ;
(PID.TID 0000.0001) PTRACERS_useDWNSLP = /* apply DOWN-SLOPE Flow */
(PID.TID 0000.0001)                   F
(PID.TID 0000.0001)     ;
(PID.TID 0000.0001) PTRACERS_useKPP = /* apply KPP scheme */
(PID.TID 0000.0001)                   F
(PID.TID 0000.0001)     ;
(PID.TID 0000.0001) PTRACERS_ref = /* Reference vertical profile */
(PID.TID 0000.0001)    35 @  0.000000000000000E+00              /* K =  1: 35 */
(PID.TID 0000.0001)     ;
(PID.TID 0000.0001) PTRACERS_EvPrRn =/* tracer conc. in Evap. & Rain */
(PID.TID 0000.0001)                 1.234567000000000E+05
(PID.TID 0000.0001)     ;
(PID.TID 0000.0001)  -----------------------------------
(PID.TID 0000.0001)  tracer number :   58
(PID.TID 0000.0001) PTRACERS_names = /* Tracer short name */
(PID.TID 0000.0001)               'c40'
(PID.TID 0000.0001)     ;
(PID.TID 0000.0001) PTRACERS_long_names = /* Tracer long name */
(PID.TID 0000.0001)               ''
(PID.TID 0000.0001)     ;
(PID.TID 0000.0001) PTRACERS_ioLabel = /* tracer IO Label */
(PID.TID 0000.0001)               '58'
(PID.TID 0000.0001)     ;
(PID.TID 0000.0001) PTRACERS_advScheme = /* Advection Scheme */
(PID.TID 0000.0001)                      33
(PID.TID 0000.0001)     ;
(PID.TID 0000.0001) PTRACERS_SOM_Advection = /* tracer uses SOM advection scheme */
(PID.TID 0000.0001)                   F
(PID.TID 0000.0001)     ;
(PID.TID 0000.0001) PTRACERS_ImplVertAdv = /* implicit vert. advection flag */
(PID.TID 0000.0001)                   F
(PID.TID 0000.0001)     ;
(PID.TID 0000.0001) PTRACERS_MultiDimAdv = /* tracer uses Multi-Dim advection */
(PID.TID 0000.0001)                   T
(PID.TID 0000.0001)     ;
(PID.TID 0000.0001) PTRACERS_AdamsBashGtr = /* apply AB on tracer tendency */
(PID.TID 0000.0001)                   F
(PID.TID 0000.0001)     ;
(PID.TID 0000.0001) PTRACERS_AdamsBash_Tr = /* apply AB on passive tracer */
(PID.TID 0000.0001)                   F
(PID.TID 0000.0001)     ;
(PID.TID 0000.0001) PTRACERS_diffKh = /* Laplacian Diffusivity */
(PID.TID 0000.0001)                 0.000000000000000E+00
(PID.TID 0000.0001)     ;
(PID.TID 0000.0001) PTRACERS_diffK4 = /* Biharmonic Diffusivity */
(PID.TID 0000.0001)                 0.000000000000000E+00
(PID.TID 0000.0001)     ;
(PID.TID 0000.0001) PTRACERS_diffKrNr = /* Vertical Diffusivity */
(PID.TID 0000.0001)    35 @  1.000000000000000E-05              /* K =  1: 35 */
(PID.TID 0000.0001)     ;
(PID.TID 0000.0001) PTRACERS_useGMRedi = /* apply GM-Redi */
(PID.TID 0000.0001)                   F
(PID.TID 0000.0001)     ;
(PID.TID 0000.0001) PTRACERS_useDWNSLP = /* apply DOWN-SLOPE Flow */
(PID.TID 0000.0001)                   F
(PID.TID 0000.0001)     ;
(PID.TID 0000.0001) PTRACERS_useKPP = /* apply KPP scheme */
(PID.TID 0000.0001)                   F
(PID.TID 0000.0001)     ;
(PID.TID 0000.0001) PTRACERS_ref = /* Reference vertical profile */
(PID.TID 0000.0001)    35 @  0.000000000000000E+00              /* K =  1: 35 */
(PID.TID 0000.0001)     ;
(PID.TID 0000.0001) PTRACERS_EvPrRn =/* tracer conc. in Evap. & Rain */
(PID.TID 0000.0001)                 1.234567000000000E+05
(PID.TID 0000.0001)     ;
(PID.TID 0000.0001)  -----------------------------------
(PID.TID 0000.0001)  tracer number :   59
(PID.TID 0000.0001) PTRACERS_names = /* Tracer short name */
(PID.TID 0000.0001)               'c41'
(PID.TID 0000.0001)     ;
(PID.TID 0000.0001) PTRACERS_long_names = /* Tracer long name */
(PID.TID 0000.0001)               ''
(PID.TID 0000.0001)     ;
(PID.TID 0000.0001) PTRACERS_ioLabel = /* tracer IO Label */
(PID.TID 0000.0001)               '59'
(PID.TID 0000.0001)     ;
(PID.TID 0000.0001) PTRACERS_advScheme = /* Advection Scheme */
(PID.TID 0000.0001)                      33
(PID.TID 0000.0001)     ;
(PID.TID 0000.0001) PTRACERS_SOM_Advection = /* tracer uses SOM advection scheme */
(PID.TID 0000.0001)                   F
(PID.TID 0000.0001)     ;
(PID.TID 0000.0001) PTRACERS_ImplVertAdv = /* implicit vert. advection flag */
(PID.TID 0000.0001)                   F
(PID.TID 0000.0001)     ;
(PID.TID 0000.0001) PTRACERS_MultiDimAdv = /* tracer uses Multi-Dim advection */
(PID.TID 0000.0001)                   T
(PID.TID 0000.0001)     ;
(PID.TID 0000.0001) PTRACERS_AdamsBashGtr = /* apply AB on tracer tendency */
(PID.TID 0000.0001)                   F
(PID.TID 0000.0001)     ;
(PID.TID 0000.0001) PTRACERS_AdamsBash_Tr = /* apply AB on passive tracer */
(PID.TID 0000.0001)                   F
(PID.TID 0000.0001)     ;
(PID.TID 0000.0001) PTRACERS_diffKh = /* Laplacian Diffusivity */
(PID.TID 0000.0001)                 0.000000000000000E+00
(PID.TID 0000.0001)     ;
(PID.TID 0000.0001) PTRACERS_diffK4 = /* Biharmonic Diffusivity */
(PID.TID 0000.0001)                 0.000000000000000E+00
(PID.TID 0000.0001)     ;
(PID.TID 0000.0001) PTRACERS_diffKrNr = /* Vertical Diffusivity */
(PID.TID 0000.0001)    35 @  1.000000000000000E-05              /* K =  1: 35 */
(PID.TID 0000.0001)     ;
(PID.TID 0000.0001) PTRACERS_useGMRedi = /* apply GM-Redi */
(PID.TID 0000.0001)                   F
(PID.TID 0000.0001)     ;
(PID.TID 0000.0001) PTRACERS_useDWNSLP = /* apply DOWN-SLOPE Flow */
(PID.TID 0000.0001)                   F
(PID.TID 0000.0001)     ;
(PID.TID 0000.0001) PTRACERS_useKPP = /* apply KPP scheme */
(PID.TID 0000.0001)                   F
(PID.TID 0000.0001)     ;
(PID.TID 0000.0001) PTRACERS_ref = /* Reference vertical profile */
(PID.TID 0000.0001)    35 @  0.000000000000000E+00              /* K =  1: 35 */
(PID.TID 0000.0001)     ;
(PID.TID 0000.0001) PTRACERS_EvPrRn =/* tracer conc. in Evap. & Rain */
(PID.TID 0000.0001)                 1.234567000000000E+05
(PID.TID 0000.0001)     ;
(PID.TID 0000.0001)  -----------------------------------
(PID.TID 0000.0001)  tracer number :   60
(PID.TID 0000.0001) PTRACERS_names = /* Tracer short name */
(PID.TID 0000.0001)               'c42'
(PID.TID 0000.0001)     ;
(PID.TID 0000.0001) PTRACERS_long_names = /* Tracer long name */
(PID.TID 0000.0001)               ''
(PID.TID 0000.0001)     ;
(PID.TID 0000.0001) PTRACERS_ioLabel = /* tracer IO Label */
(PID.TID 0000.0001)               '60'
(PID.TID 0000.0001)     ;
(PID.TID 0000.0001) PTRACERS_advScheme = /* Advection Scheme */
(PID.TID 0000.0001)                      33
(PID.TID 0000.0001)     ;
(PID.TID 0000.0001) PTRACERS_SOM_Advection = /* tracer uses SOM advection scheme */
(PID.TID 0000.0001)                   F
(PID.TID 0000.0001)     ;
(PID.TID 0000.0001) PTRACERS_ImplVertAdv = /* implicit vert. advection flag */
(PID.TID 0000.0001)                   F
(PID.TID 0000.0001)     ;
(PID.TID 0000.0001) PTRACERS_MultiDimAdv = /* tracer uses Multi-Dim advection */
(PID.TID 0000.0001)                   T
(PID.TID 0000.0001)     ;
(PID.TID 0000.0001) PTRACERS_AdamsBashGtr = /* apply AB on tracer tendency */
(PID.TID 0000.0001)                   F
(PID.TID 0000.0001)     ;
(PID.TID 0000.0001) PTRACERS_AdamsBash_Tr = /* apply AB on passive tracer */
(PID.TID 0000.0001)                   F
(PID.TID 0000.0001)     ;
(PID.TID 0000.0001) PTRACERS_diffKh = /* Laplacian Diffusivity */
(PID.TID 0000.0001)                 0.000000000000000E+00
(PID.TID 0000.0001)     ;
(PID.TID 0000.0001) PTRACERS_diffK4 = /* Biharmonic Diffusivity */
(PID.TID 0000.0001)                 0.000000000000000E+00
(PID.TID 0000.0001)     ;
(PID.TID 0000.0001) PTRACERS_diffKrNr = /* Vertical Diffusivity */
(PID.TID 0000.0001)    35 @  1.000000000000000E-05              /* K =  1: 35 */
(PID.TID 0000.0001)     ;
(PID.TID 0000.0001) PTRACERS_useGMRedi = /* apply GM-Redi */
(PID.TID 0000.0001)                   F
(PID.TID 0000.0001)     ;
(PID.TID 0000.0001) PTRACERS_useDWNSLP = /* apply DOWN-SLOPE Flow */
(PID.TID 0000.0001)                   F
(PID.TID 0000.0001)     ;
(PID.TID 0000.0001) PTRACERS_useKPP = /* apply KPP scheme */
(PID.TID 0000.0001)                   F
(PID.TID 0000.0001)     ;
(PID.TID 0000.0001) PTRACERS_ref = /* Reference vertical profile */
(PID.TID 0000.0001)    35 @  0.000000000000000E+00              /* K =  1: 35 */
(PID.TID 0000.0001)     ;
(PID.TID 0000.0001) PTRACERS_EvPrRn =/* tracer conc. in Evap. & Rain */
(PID.TID 0000.0001)                 1.234567000000000E+05
(PID.TID 0000.0001)     ;
(PID.TID 0000.0001)  -----------------------------------
(PID.TID 0000.0001)  tracer number :   61
(PID.TID 0000.0001) PTRACERS_names = /* Tracer short name */
(PID.TID 0000.0001)               'c43'
(PID.TID 0000.0001)     ;
(PID.TID 0000.0001) PTRACERS_long_names = /* Tracer long name */
(PID.TID 0000.0001)               ''
(PID.TID 0000.0001)     ;
(PID.TID 0000.0001) PTRACERS_ioLabel = /* tracer IO Label */
(PID.TID 0000.0001)               '61'
(PID.TID 0000.0001)     ;
(PID.TID 0000.0001) PTRACERS_advScheme = /* Advection Scheme */
(PID.TID 0000.0001)                      33
(PID.TID 0000.0001)     ;
(PID.TID 0000.0001) PTRACERS_SOM_Advection = /* tracer uses SOM advection scheme */
(PID.TID 0000.0001)                   F
(PID.TID 0000.0001)     ;
(PID.TID 0000.0001) PTRACERS_ImplVertAdv = /* implicit vert. advection flag */
(PID.TID 0000.0001)                   F
(PID.TID 0000.0001)     ;
(PID.TID 0000.0001) PTRACERS_MultiDimAdv = /* tracer uses Multi-Dim advection */
(PID.TID 0000.0001)                   T
(PID.TID 0000.0001)     ;
(PID.TID 0000.0001) PTRACERS_AdamsBashGtr = /* apply AB on tracer tendency */
(PID.TID 0000.0001)                   F
(PID.TID 0000.0001)     ;
(PID.TID 0000.0001) PTRACERS_AdamsBash_Tr = /* apply AB on passive tracer */
(PID.TID 0000.0001)                   F
(PID.TID 0000.0001)     ;
(PID.TID 0000.0001) PTRACERS_diffKh = /* Laplacian Diffusivity */
(PID.TID 0000.0001)                 0.000000000000000E+00
(PID.TID 0000.0001)     ;
(PID.TID 0000.0001) PTRACERS_diffK4 = /* Biharmonic Diffusivity */
(PID.TID 0000.0001)                 0.000000000000000E+00
(PID.TID 0000.0001)     ;
(PID.TID 0000.0001) PTRACERS_diffKrNr = /* Vertical Diffusivity */
(PID.TID 0000.0001)    35 @  1.000000000000000E-05              /* K =  1: 35 */
(PID.TID 0000.0001)     ;
(PID.TID 0000.0001) PTRACERS_useGMRedi = /* apply GM-Redi */
(PID.TID 0000.0001)                   F
(PID.TID 0000.0001)     ;
(PID.TID 0000.0001) PTRACERS_useDWNSLP = /* apply DOWN-SLOPE Flow */
(PID.TID 0000.0001)                   F
(PID.TID 0000.0001)     ;
(PID.TID 0000.0001) PTRACERS_useKPP = /* apply KPP scheme */
(PID.TID 0000.0001)                   F
(PID.TID 0000.0001)     ;
(PID.TID 0000.0001) PTRACERS_ref = /* Reference vertical profile */
(PID.TID 0000.0001)    35 @  0.000000000000000E+00              /* K =  1: 35 */
(PID.TID 0000.0001)     ;
(PID.TID 0000.0001) PTRACERS_EvPrRn =/* tracer conc. in Evap. & Rain */
(PID.TID 0000.0001)                 1.234567000000000E+05
(PID.TID 0000.0001)     ;
(PID.TID 0000.0001)  -----------------------------------
(PID.TID 0000.0001)  tracer number :   62
(PID.TID 0000.0001) PTRACERS_names = /* Tracer short name */
(PID.TID 0000.0001)               'c44'
(PID.TID 0000.0001)     ;
(PID.TID 0000.0001) PTRACERS_long_names = /* Tracer long name */
(PID.TID 0000.0001)               ''
(PID.TID 0000.0001)     ;
(PID.TID 0000.0001) PTRACERS_ioLabel = /* tracer IO Label */
(PID.TID 0000.0001)               '62'
(PID.TID 0000.0001)     ;
(PID.TID 0000.0001) PTRACERS_advScheme = /* Advection Scheme */
(PID.TID 0000.0001)                      33
(PID.TID 0000.0001)     ;
(PID.TID 0000.0001) PTRACERS_SOM_Advection = /* tracer uses SOM advection scheme */
(PID.TID 0000.0001)                   F
(PID.TID 0000.0001)     ;
(PID.TID 0000.0001) PTRACERS_ImplVertAdv = /* implicit vert. advection flag */
(PID.TID 0000.0001)                   F
(PID.TID 0000.0001)     ;
(PID.TID 0000.0001) PTRACERS_MultiDimAdv = /* tracer uses Multi-Dim advection */
(PID.TID 0000.0001)                   T
(PID.TID 0000.0001)     ;
(PID.TID 0000.0001) PTRACERS_AdamsBashGtr = /* apply AB on tracer tendency */
(PID.TID 0000.0001)                   F
(PID.TID 0000.0001)     ;
(PID.TID 0000.0001) PTRACERS_AdamsBash_Tr = /* apply AB on passive tracer */
(PID.TID 0000.0001)                   F
(PID.TID 0000.0001)     ;
(PID.TID 0000.0001) PTRACERS_diffKh = /* Laplacian Diffusivity */
(PID.TID 0000.0001)                 0.000000000000000E+00
(PID.TID 0000.0001)     ;
(PID.TID 0000.0001) PTRACERS_diffK4 = /* Biharmonic Diffusivity */
(PID.TID 0000.0001)                 0.000000000000000E+00
(PID.TID 0000.0001)     ;
(PID.TID 0000.0001) PTRACERS_diffKrNr = /* Vertical Diffusivity */
(PID.TID 0000.0001)    35 @  1.000000000000000E-05              /* K =  1: 35 */
(PID.TID 0000.0001)     ;
(PID.TID 0000.0001) PTRACERS_useGMRedi = /* apply GM-Redi */
(PID.TID 0000.0001)                   F
(PID.TID 0000.0001)     ;
(PID.TID 0000.0001) PTRACERS_useDWNSLP = /* apply DOWN-SLOPE Flow */
(PID.TID 0000.0001)                   F
(PID.TID 0000.0001)     ;
(PID.TID 0000.0001) PTRACERS_useKPP = /* apply KPP scheme */
(PID.TID 0000.0001)                   F
(PID.TID 0000.0001)     ;
(PID.TID 0000.0001) PTRACERS_ref = /* Reference vertical profile */
(PID.TID 0000.0001)    35 @  0.000000000000000E+00              /* K =  1: 35 */
(PID.TID 0000.0001)     ;
(PID.TID 0000.0001) PTRACERS_EvPrRn =/* tracer conc. in Evap. & Rain */
(PID.TID 0000.0001)                 1.234567000000000E+05
(PID.TID 0000.0001)     ;
(PID.TID 0000.0001)  -----------------------------------
(PID.TID 0000.0001)  tracer number :   63
(PID.TID 0000.0001) PTRACERS_names = /* Tracer short name */
(PID.TID 0000.0001)               'c45'
(PID.TID 0000.0001)     ;
(PID.TID 0000.0001) PTRACERS_long_names = /* Tracer long name */
(PID.TID 0000.0001)               ''
(PID.TID 0000.0001)     ;
(PID.TID 0000.0001) PTRACERS_ioLabel = /* tracer IO Label */
(PID.TID 0000.0001)               '63'
(PID.TID 0000.0001)     ;
(PID.TID 0000.0001) PTRACERS_advScheme = /* Advection Scheme */
(PID.TID 0000.0001)                      33
(PID.TID 0000.0001)     ;
(PID.TID 0000.0001) PTRACERS_SOM_Advection = /* tracer uses SOM advection scheme */
(PID.TID 0000.0001)                   F
(PID.TID 0000.0001)     ;
(PID.TID 0000.0001) PTRACERS_ImplVertAdv = /* implicit vert. advection flag */
(PID.TID 0000.0001)                   F
(PID.TID 0000.0001)     ;
(PID.TID 0000.0001) PTRACERS_MultiDimAdv = /* tracer uses Multi-Dim advection */
(PID.TID 0000.0001)                   T
(PID.TID 0000.0001)     ;
(PID.TID 0000.0001) PTRACERS_AdamsBashGtr = /* apply AB on tracer tendency */
(PID.TID 0000.0001)                   F
(PID.TID 0000.0001)     ;
(PID.TID 0000.0001) PTRACERS_AdamsBash_Tr = /* apply AB on passive tracer */
(PID.TID 0000.0001)                   F
(PID.TID 0000.0001)     ;
(PID.TID 0000.0001) PTRACERS_diffKh = /* Laplacian Diffusivity */
(PID.TID 0000.0001)                 0.000000000000000E+00
(PID.TID 0000.0001)     ;
(PID.TID 0000.0001) PTRACERS_diffK4 = /* Biharmonic Diffusivity */
(PID.TID 0000.0001)                 0.000000000000000E+00
(PID.TID 0000.0001)     ;
(PID.TID 0000.0001) PTRACERS_diffKrNr = /* Vertical Diffusivity */
(PID.TID 0000.0001)    35 @  1.000000000000000E-05              /* K =  1: 35 */
(PID.TID 0000.0001)     ;
(PID.TID 0000.0001) PTRACERS_useGMRedi = /* apply GM-Redi */
(PID.TID 0000.0001)                   F
(PID.TID 0000.0001)     ;
(PID.TID 0000.0001) PTRACERS_useDWNSLP = /* apply DOWN-SLOPE Flow */
(PID.TID 0000.0001)                   F
(PID.TID 0000.0001)     ;
(PID.TID 0000.0001) PTRACERS_useKPP = /* apply KPP scheme */
(PID.TID 0000.0001)                   F
(PID.TID 0000.0001)     ;
(PID.TID 0000.0001) PTRACERS_ref = /* Reference vertical profile */
(PID.TID 0000.0001)    35 @  0.000000000000000E+00              /* K =  1: 35 */
(PID.TID 0000.0001)     ;
(PID.TID 0000.0001) PTRACERS_EvPrRn =/* tracer conc. in Evap. & Rain */
(PID.TID 0000.0001)                 1.234567000000000E+05
(PID.TID 0000.0001)     ;
(PID.TID 0000.0001)  -----------------------------------
(PID.TID 0000.0001)  tracer number :   64
(PID.TID 0000.0001) PTRACERS_names = /* Tracer short name */
(PID.TID 0000.0001)               'c46'
(PID.TID 0000.0001)     ;
(PID.TID 0000.0001) PTRACERS_long_names = /* Tracer long name */
(PID.TID 0000.0001)               ''
(PID.TID 0000.0001)     ;
(PID.TID 0000.0001) PTRACERS_ioLabel = /* tracer IO Label */
(PID.TID 0000.0001)               '64'
(PID.TID 0000.0001)     ;
(PID.TID 0000.0001) PTRACERS_advScheme = /* Advection Scheme */
(PID.TID 0000.0001)                      33
(PID.TID 0000.0001)     ;
(PID.TID 0000.0001) PTRACERS_SOM_Advection = /* tracer uses SOM advection scheme */
(PID.TID 0000.0001)                   F
(PID.TID 0000.0001)     ;
(PID.TID 0000.0001) PTRACERS_ImplVertAdv = /* implicit vert. advection flag */
(PID.TID 0000.0001)                   F
(PID.TID 0000.0001)     ;
(PID.TID 0000.0001) PTRACERS_MultiDimAdv = /* tracer uses Multi-Dim advection */
(PID.TID 0000.0001)                   T
(PID.TID 0000.0001)     ;
(PID.TID 0000.0001) PTRACERS_AdamsBashGtr = /* apply AB on tracer tendency */
(PID.TID 0000.0001)                   F
(PID.TID 0000.0001)     ;
(PID.TID 0000.0001) PTRACERS_AdamsBash_Tr = /* apply AB on passive tracer */
(PID.TID 0000.0001)                   F
(PID.TID 0000.0001)     ;
(PID.TID 0000.0001) PTRACERS_diffKh = /* Laplacian Diffusivity */
(PID.TID 0000.0001)                 0.000000000000000E+00
(PID.TID 0000.0001)     ;
(PID.TID 0000.0001) PTRACERS_diffK4 = /* Biharmonic Diffusivity */
(PID.TID 0000.0001)                 0.000000000000000E+00
(PID.TID 0000.0001)     ;
(PID.TID 0000.0001) PTRACERS_diffKrNr = /* Vertical Diffusivity */
(PID.TID 0000.0001)    35 @  1.000000000000000E-05              /* K =  1: 35 */
(PID.TID 0000.0001)     ;
(PID.TID 0000.0001) PTRACERS_useGMRedi = /* apply GM-Redi */
(PID.TID 0000.0001)                   F
(PID.TID 0000.0001)     ;
(PID.TID 0000.0001) PTRACERS_useDWNSLP = /* apply DOWN-SLOPE Flow */
(PID.TID 0000.0001)                   F
(PID.TID 0000.0001)     ;
(PID.TID 0000.0001) PTRACERS_useKPP = /* apply KPP scheme */
(PID.TID 0000.0001)                   F
(PID.TID 0000.0001)     ;
(PID.TID 0000.0001) PTRACERS_ref = /* Reference vertical profile */
(PID.TID 0000.0001)    35 @  0.000000000000000E+00              /* K =  1: 35 */
(PID.TID 0000.0001)     ;
(PID.TID 0000.0001) PTRACERS_EvPrRn =/* tracer conc. in Evap. & Rain */
(PID.TID 0000.0001)                 1.234567000000000E+05
(PID.TID 0000.0001)     ;
(PID.TID 0000.0001)  -----------------------------------
(PID.TID 0000.0001)  tracer number :   65
(PID.TID 0000.0001) PTRACERS_names = /* Tracer short name */
(PID.TID 0000.0001)               'c47'
(PID.TID 0000.0001)     ;
(PID.TID 0000.0001) PTRACERS_long_names = /* Tracer long name */
(PID.TID 0000.0001)               ''
(PID.TID 0000.0001)     ;
(PID.TID 0000.0001) PTRACERS_ioLabel = /* tracer IO Label */
(PID.TID 0000.0001)               '65'
(PID.TID 0000.0001)     ;
(PID.TID 0000.0001) PTRACERS_advScheme = /* Advection Scheme */
(PID.TID 0000.0001)                      33
(PID.TID 0000.0001)     ;
(PID.TID 0000.0001) PTRACERS_SOM_Advection = /* tracer uses SOM advection scheme */
(PID.TID 0000.0001)                   F
(PID.TID 0000.0001)     ;
(PID.TID 0000.0001) PTRACERS_ImplVertAdv = /* implicit vert. advection flag */
(PID.TID 0000.0001)                   F
(PID.TID 0000.0001)     ;
(PID.TID 0000.0001) PTRACERS_MultiDimAdv = /* tracer uses Multi-Dim advection */
(PID.TID 0000.0001)                   T
(PID.TID 0000.0001)     ;
(PID.TID 0000.0001) PTRACERS_AdamsBashGtr = /* apply AB on tracer tendency */
(PID.TID 0000.0001)                   F
(PID.TID 0000.0001)     ;
(PID.TID 0000.0001) PTRACERS_AdamsBash_Tr = /* apply AB on passive tracer */
(PID.TID 0000.0001)                   F
(PID.TID 0000.0001)     ;
(PID.TID 0000.0001) PTRACERS_diffKh = /* Laplacian Diffusivity */
(PID.TID 0000.0001)                 0.000000000000000E+00
(PID.TID 0000.0001)     ;
(PID.TID 0000.0001) PTRACERS_diffK4 = /* Biharmonic Diffusivity */
(PID.TID 0000.0001)                 0.000000000000000E+00
(PID.TID 0000.0001)     ;
(PID.TID 0000.0001) PTRACERS_diffKrNr = /* Vertical Diffusivity */
(PID.TID 0000.0001)    35 @  1.000000000000000E-05              /* K =  1: 35 */
(PID.TID 0000.0001)     ;
(PID.TID 0000.0001) PTRACERS_useGMRedi = /* apply GM-Redi */
(PID.TID 0000.0001)                   F
(PID.TID 0000.0001)     ;
(PID.TID 0000.0001) PTRACERS_useDWNSLP = /* apply DOWN-SLOPE Flow */
(PID.TID 0000.0001)                   F
(PID.TID 0000.0001)     ;
(PID.TID 0000.0001) PTRACERS_useKPP = /* apply KPP scheme */
(PID.TID 0000.0001)                   F
(PID.TID 0000.0001)     ;
(PID.TID 0000.0001) PTRACERS_ref = /* Reference vertical profile */
(PID.TID 0000.0001)    35 @  0.000000000000000E+00              /* K =  1: 35 */
(PID.TID 0000.0001)     ;
(PID.TID 0000.0001) PTRACERS_EvPrRn =/* tracer conc. in Evap. & Rain */
(PID.TID 0000.0001)                 1.234567000000000E+05
(PID.TID 0000.0001)     ;
(PID.TID 0000.0001)  -----------------------------------
(PID.TID 0000.0001)  tracer number :   66
(PID.TID 0000.0001) PTRACERS_names = /* Tracer short name */
(PID.TID 0000.0001)               'c48'
(PID.TID 0000.0001)     ;
(PID.TID 0000.0001) PTRACERS_long_names = /* Tracer long name */
(PID.TID 0000.0001)               ''
(PID.TID 0000.0001)     ;
(PID.TID 0000.0001) PTRACERS_ioLabel = /* tracer IO Label */
(PID.TID 0000.0001)               '66'
(PID.TID 0000.0001)     ;
(PID.TID 0000.0001) PTRACERS_advScheme = /* Advection Scheme */
(PID.TID 0000.0001)                      33
(PID.TID 0000.0001)     ;
(PID.TID 0000.0001) PTRACERS_SOM_Advection = /* tracer uses SOM advection scheme */
(PID.TID 0000.0001)                   F
(PID.TID 0000.0001)     ;
(PID.TID 0000.0001) PTRACERS_ImplVertAdv = /* implicit vert. advection flag */
(PID.TID 0000.0001)                   F
(PID.TID 0000.0001)     ;
(PID.TID 0000.0001) PTRACERS_MultiDimAdv = /* tracer uses Multi-Dim advection */
(PID.TID 0000.0001)                   T
(PID.TID 0000.0001)     ;
(PID.TID 0000.0001) PTRACERS_AdamsBashGtr = /* apply AB on tracer tendency */
(PID.TID 0000.0001)                   F
(PID.TID 0000.0001)     ;
(PID.TID 0000.0001) PTRACERS_AdamsBash_Tr = /* apply AB on passive tracer */
(PID.TID 0000.0001)                   F
(PID.TID 0000.0001)     ;
(PID.TID 0000.0001) PTRACERS_diffKh = /* Laplacian Diffusivity */
(PID.TID 0000.0001)                 0.000000000000000E+00
(PID.TID 0000.0001)     ;
(PID.TID 0000.0001) PTRACERS_diffK4 = /* Biharmonic Diffusivity */
(PID.TID 0000.0001)                 0.000000000000000E+00
(PID.TID 0000.0001)     ;
(PID.TID 0000.0001) PTRACERS_diffKrNr = /* Vertical Diffusivity */
(PID.TID 0000.0001)    35 @  1.000000000000000E-05              /* K =  1: 35 */
(PID.TID 0000.0001)     ;
(PID.TID 0000.0001) PTRACERS_useGMRedi = /* apply GM-Redi */
(PID.TID 0000.0001)                   F
(PID.TID 0000.0001)     ;
(PID.TID 0000.0001) PTRACERS_useDWNSLP = /* apply DOWN-SLOPE Flow */
(PID.TID 0000.0001)                   F
(PID.TID 0000.0001)     ;
(PID.TID 0000.0001) PTRACERS_useKPP = /* apply KPP scheme */
(PID.TID 0000.0001)                   F
(PID.TID 0000.0001)     ;
(PID.TID 0000.0001) PTRACERS_ref = /* Reference vertical profile */
(PID.TID 0000.0001)    35 @  0.000000000000000E+00              /* K =  1: 35 */
(PID.TID 0000.0001)     ;
(PID.TID 0000.0001) PTRACERS_EvPrRn =/* tracer conc. in Evap. & Rain */
(PID.TID 0000.0001)                 1.234567000000000E+05
(PID.TID 0000.0001)     ;
(PID.TID 0000.0001)  -----------------------------------
(PID.TID 0000.0001)  tracer number :   67
(PID.TID 0000.0001) PTRACERS_names = /* Tracer short name */
(PID.TID 0000.0001)               'c49'
(PID.TID 0000.0001)     ;
(PID.TID 0000.0001) PTRACERS_long_names = /* Tracer long name */
(PID.TID 0000.0001)               ''
(PID.TID 0000.0001)     ;
(PID.TID 0000.0001) PTRACERS_ioLabel = /* tracer IO Label */
(PID.TID 0000.0001)               '67'
(PID.TID 0000.0001)     ;
(PID.TID 0000.0001) PTRACERS_advScheme = /* Advection Scheme */
(PID.TID 0000.0001)                      33
(PID.TID 0000.0001)     ;
(PID.TID 0000.0001) PTRACERS_SOM_Advection = /* tracer uses SOM advection scheme */
(PID.TID 0000.0001)                   F
(PID.TID 0000.0001)     ;
(PID.TID 0000.0001) PTRACERS_ImplVertAdv = /* implicit vert. advection flag */
(PID.TID 0000.0001)                   F
(PID.TID 0000.0001)     ;
(PID.TID 0000.0001) PTRACERS_MultiDimAdv = /* tracer uses Multi-Dim advection */
(PID.TID 0000.0001)                   T
(PID.TID 0000.0001)     ;
(PID.TID 0000.0001) PTRACERS_AdamsBashGtr = /* apply AB on tracer tendency */
(PID.TID 0000.0001)                   F
(PID.TID 0000.0001)     ;
(PID.TID 0000.0001) PTRACERS_AdamsBash_Tr = /* apply AB on passive tracer */
(PID.TID 0000.0001)                   F
(PID.TID 0000.0001)     ;
(PID.TID 0000.0001) PTRACERS_diffKh = /* Laplacian Diffusivity */
(PID.TID 0000.0001)                 0.000000000000000E+00
(PID.TID 0000.0001)     ;
(PID.TID 0000.0001) PTRACERS_diffK4 = /* Biharmonic Diffusivity */
(PID.TID 0000.0001)                 0.000000000000000E+00
(PID.TID 0000.0001)     ;
(PID.TID 0000.0001) PTRACERS_diffKrNr = /* Vertical Diffusivity */
(PID.TID 0000.0001)    35 @  1.000000000000000E-05              /* K =  1: 35 */
(PID.TID 0000.0001)     ;
(PID.TID 0000.0001) PTRACERS_useGMRedi = /* apply GM-Redi */
(PID.TID 0000.0001)                   F
(PID.TID 0000.0001)     ;
(PID.TID 0000.0001) PTRACERS_useDWNSLP = /* apply DOWN-SLOPE Flow */
(PID.TID 0000.0001)                   F
(PID.TID 0000.0001)     ;
(PID.TID 0000.0001) PTRACERS_useKPP = /* apply KPP scheme */
(PID.TID 0000.0001)                   F
(PID.TID 0000.0001)     ;
(PID.TID 0000.0001) PTRACERS_ref = /* Reference vertical profile */
(PID.TID 0000.0001)    35 @  0.000000000000000E+00              /* K =  1: 35 */
(PID.TID 0000.0001)     ;
(PID.TID 0000.0001) PTRACERS_EvPrRn =/* tracer conc. in Evap. & Rain */
(PID.TID 0000.0001)                 1.234567000000000E+05
(PID.TID 0000.0001)     ;
(PID.TID 0000.0001)  -----------------------------------
(PID.TID 0000.0001)  tracer number :   68
(PID.TID 0000.0001) PTRACERS_names = /* Tracer short name */
(PID.TID 0000.0001)               'c50'
(PID.TID 0000.0001)     ;
(PID.TID 0000.0001) PTRACERS_long_names = /* Tracer long name */
(PID.TID 0000.0001)               ''
(PID.TID 0000.0001)     ;
(PID.TID 0000.0001) PTRACERS_ioLabel = /* tracer IO Label */
(PID.TID 0000.0001)               '68'
(PID.TID 0000.0001)     ;
(PID.TID 0000.0001) PTRACERS_advScheme = /* Advection Scheme */
(PID.TID 0000.0001)                      33
(PID.TID 0000.0001)     ;
(PID.TID 0000.0001) PTRACERS_SOM_Advection = /* tracer uses SOM advection scheme */
(PID.TID 0000.0001)                   F
(PID.TID 0000.0001)     ;
(PID.TID 0000.0001) PTRACERS_ImplVertAdv = /* implicit vert. advection flag */
(PID.TID 0000.0001)                   F
(PID.TID 0000.0001)     ;
(PID.TID 0000.0001) PTRACERS_MultiDimAdv = /* tracer uses Multi-Dim advection */
(PID.TID 0000.0001)                   T
(PID.TID 0000.0001)     ;
(PID.TID 0000.0001) PTRACERS_AdamsBashGtr = /* apply AB on tracer tendency */
(PID.TID 0000.0001)                   F
(PID.TID 0000.0001)     ;
(PID.TID 0000.0001) PTRACERS_AdamsBash_Tr = /* apply AB on passive tracer */
(PID.TID 0000.0001)                   F
(PID.TID 0000.0001)     ;
(PID.TID 0000.0001) PTRACERS_diffKh = /* Laplacian Diffusivity */
(PID.TID 0000.0001)                 0.000000000000000E+00
(PID.TID 0000.0001)     ;
(PID.TID 0000.0001) PTRACERS_diffK4 = /* Biharmonic Diffusivity */
(PID.TID 0000.0001)                 0.000000000000000E+00
(PID.TID 0000.0001)     ;
(PID.TID 0000.0001) PTRACERS_diffKrNr = /* Vertical Diffusivity */
(PID.TID 0000.0001)    35 @  1.000000000000000E-05              /* K =  1: 35 */
(PID.TID 0000.0001)     ;
(PID.TID 0000.0001) PTRACERS_useGMRedi = /* apply GM-Redi */
(PID.TID 0000.0001)                   F
(PID.TID 0000.0001)     ;
(PID.TID 0000.0001) PTRACERS_useDWNSLP = /* apply DOWN-SLOPE Flow */
(PID.TID 0000.0001)                   F
(PID.TID 0000.0001)     ;
(PID.TID 0000.0001) PTRACERS_useKPP = /* apply KPP scheme */
(PID.TID 0000.0001)                   F
(PID.TID 0000.0001)     ;
(PID.TID 0000.0001) PTRACERS_ref = /* Reference vertical profile */
(PID.TID 0000.0001)    35 @  0.000000000000000E+00              /* K =  1: 35 */
(PID.TID 0000.0001)     ;
(PID.TID 0000.0001) PTRACERS_EvPrRn =/* tracer conc. in Evap. & Rain */
(PID.TID 0000.0001)                 1.234567000000000E+05
(PID.TID 0000.0001)     ;
(PID.TID 0000.0001)  -----------------------------------
(PID.TID 0000.0001)  tracer number :   69
(PID.TID 0000.0001) PTRACERS_names = /* Tracer short name */
(PID.TID 0000.0001)               'c51'
(PID.TID 0000.0001)     ;
(PID.TID 0000.0001) PTRACERS_long_names = /* Tracer long name */
(PID.TID 0000.0001)               ''
(PID.TID 0000.0001)     ;
(PID.TID 0000.0001) PTRACERS_ioLabel = /* tracer IO Label */
(PID.TID 0000.0001)               '69'
(PID.TID 0000.0001)     ;
(PID.TID 0000.0001) PTRACERS_advScheme = /* Advection Scheme */
(PID.TID 0000.0001)                      33
(PID.TID 0000.0001)     ;
(PID.TID 0000.0001) PTRACERS_SOM_Advection = /* tracer uses SOM advection scheme */
(PID.TID 0000.0001)                   F
(PID.TID 0000.0001)     ;
(PID.TID 0000.0001) PTRACERS_ImplVertAdv = /* implicit vert. advection flag */
(PID.TID 0000.0001)                   F
(PID.TID 0000.0001)     ;
(PID.TID 0000.0001) PTRACERS_MultiDimAdv = /* tracer uses Multi-Dim advection */
(PID.TID 0000.0001)                   T
(PID.TID 0000.0001)     ;
(PID.TID 0000.0001) PTRACERS_AdamsBashGtr = /* apply AB on tracer tendency */
(PID.TID 0000.0001)                   F
(PID.TID 0000.0001)     ;
(PID.TID 0000.0001) PTRACERS_AdamsBash_Tr = /* apply AB on passive tracer */
(PID.TID 0000.0001)                   F
(PID.TID 0000.0001)     ;
(PID.TID 0000.0001) PTRACERS_diffKh = /* Laplacian Diffusivity */
(PID.TID 0000.0001)                 0.000000000000000E+00
(PID.TID 0000.0001)     ;
(PID.TID 0000.0001) PTRACERS_diffK4 = /* Biharmonic Diffusivity */
(PID.TID 0000.0001)                 0.000000000000000E+00
(PID.TID 0000.0001)     ;
(PID.TID 0000.0001) PTRACERS_diffKrNr = /* Vertical Diffusivity */
(PID.TID 0000.0001)    35 @  1.000000000000000E-05              /* K =  1: 35 */
(PID.TID 0000.0001)     ;
(PID.TID 0000.0001) PTRACERS_useGMRedi = /* apply GM-Redi */
(PID.TID 0000.0001)                   F
(PID.TID 0000.0001)     ;
(PID.TID 0000.0001) PTRACERS_useDWNSLP = /* apply DOWN-SLOPE Flow */
(PID.TID 0000.0001)                   F
(PID.TID 0000.0001)     ;
(PID.TID 0000.0001) PTRACERS_useKPP = /* apply KPP scheme */
(PID.TID 0000.0001)                   F
(PID.TID 0000.0001)     ;
(PID.TID 0000.0001) PTRACERS_ref = /* Reference vertical profile */
(PID.TID 0000.0001)    35 @  0.000000000000000E+00              /* K =  1: 35 */
(PID.TID 0000.0001)     ;
(PID.TID 0000.0001) PTRACERS_EvPrRn =/* tracer conc. in Evap. & Rain */
(PID.TID 0000.0001)                 1.234567000000000E+05
(PID.TID 0000.0001)     ;
(PID.TID 0000.0001)  -----------------------------------
(PID.TID 0000.0001)  tracer number :   70
(PID.TID 0000.0001) PTRACERS_names = /* Tracer short name */
(PID.TID 0000.0001)               'c52'
(PID.TID 0000.0001)     ;
(PID.TID 0000.0001) PTRACERS_long_names = /* Tracer long name */
(PID.TID 0000.0001)               ''
(PID.TID 0000.0001)     ;
(PID.TID 0000.0001) PTRACERS_ioLabel = /* tracer IO Label */
(PID.TID 0000.0001)               '70'
(PID.TID 0000.0001)     ;
(PID.TID 0000.0001) PTRACERS_advScheme = /* Advection Scheme */
(PID.TID 0000.0001)                      33
(PID.TID 0000.0001)     ;
(PID.TID 0000.0001) PTRACERS_SOM_Advection = /* tracer uses SOM advection scheme */
(PID.TID 0000.0001)                   F
(PID.TID 0000.0001)     ;
(PID.TID 0000.0001) PTRACERS_ImplVertAdv = /* implicit vert. advection flag */
(PID.TID 0000.0001)                   F
(PID.TID 0000.0001)     ;
(PID.TID 0000.0001) PTRACERS_MultiDimAdv = /* tracer uses Multi-Dim advection */
(PID.TID 0000.0001)                   T
(PID.TID 0000.0001)     ;
(PID.TID 0000.0001) PTRACERS_AdamsBashGtr = /* apply AB on tracer tendency */
(PID.TID 0000.0001)                   F
(PID.TID 0000.0001)     ;
(PID.TID 0000.0001) PTRACERS_AdamsBash_Tr = /* apply AB on passive tracer */
(PID.TID 0000.0001)                   F
(PID.TID 0000.0001)     ;
(PID.TID 0000.0001) PTRACERS_diffKh = /* Laplacian Diffusivity */
(PID.TID 0000.0001)                 0.000000000000000E+00
(PID.TID 0000.0001)     ;
(PID.TID 0000.0001) PTRACERS_diffK4 = /* Biharmonic Diffusivity */
(PID.TID 0000.0001)                 0.000000000000000E+00
(PID.TID 0000.0001)     ;
(PID.TID 0000.0001) PTRACERS_diffKrNr = /* Vertical Diffusivity */
(PID.TID 0000.0001)    35 @  1.000000000000000E-05              /* K =  1: 35 */
(PID.TID 0000.0001)     ;
(PID.TID 0000.0001) PTRACERS_useGMRedi = /* apply GM-Redi */
(PID.TID 0000.0001)                   F
(PID.TID 0000.0001)     ;
(PID.TID 0000.0001) PTRACERS_useDWNSLP = /* apply DOWN-SLOPE Flow */
(PID.TID 0000.0001)                   F
(PID.TID 0000.0001)     ;
(PID.TID 0000.0001) PTRACERS_useKPP = /* apply KPP scheme */
(PID.TID 0000.0001)                   F
(PID.TID 0000.0001)     ;
(PID.TID 0000.0001) PTRACERS_ref = /* Reference vertical profile */
(PID.TID 0000.0001)    35 @  0.000000000000000E+00              /* K =  1: 35 */
(PID.TID 0000.0001)     ;
(PID.TID 0000.0001) PTRACERS_EvPrRn =/* tracer conc. in Evap. & Rain */
(PID.TID 0000.0001)                 1.234567000000000E+05
(PID.TID 0000.0001)     ;
(PID.TID 0000.0001)  -----------------------------------
(PID.TID 0000.0001)  tracer number :   71
(PID.TID 0000.0001) PTRACERS_names = /* Tracer short name */
(PID.TID 0000.0001)               'c53'
(PID.TID 0000.0001)     ;
(PID.TID 0000.0001) PTRACERS_long_names = /* Tracer long name */
(PID.TID 0000.0001)               ''
(PID.TID 0000.0001)     ;
(PID.TID 0000.0001) PTRACERS_ioLabel = /* tracer IO Label */
(PID.TID 0000.0001)               '71'
(PID.TID 0000.0001)     ;
(PID.TID 0000.0001) PTRACERS_advScheme = /* Advection Scheme */
(PID.TID 0000.0001)                      33
(PID.TID 0000.0001)     ;
(PID.TID 0000.0001) PTRACERS_SOM_Advection = /* tracer uses SOM advection scheme */
(PID.TID 0000.0001)                   F
(PID.TID 0000.0001)     ;
(PID.TID 0000.0001) PTRACERS_ImplVertAdv = /* implicit vert. advection flag */
(PID.TID 0000.0001)                   F
(PID.TID 0000.0001)     ;
(PID.TID 0000.0001) PTRACERS_MultiDimAdv = /* tracer uses Multi-Dim advection */
(PID.TID 0000.0001)                   T
(PID.TID 0000.0001)     ;
(PID.TID 0000.0001) PTRACERS_AdamsBashGtr = /* apply AB on tracer tendency */
(PID.TID 0000.0001)                   F
(PID.TID 0000.0001)     ;
(PID.TID 0000.0001) PTRACERS_AdamsBash_Tr = /* apply AB on passive tracer */
(PID.TID 0000.0001)                   F
(PID.TID 0000.0001)     ;
(PID.TID 0000.0001) PTRACERS_diffKh = /* Laplacian Diffusivity */
(PID.TID 0000.0001)                 0.000000000000000E+00
(PID.TID 0000.0001)     ;
(PID.TID 0000.0001) PTRACERS_diffK4 = /* Biharmonic Diffusivity */
(PID.TID 0000.0001)                 0.000000000000000E+00
(PID.TID 0000.0001)     ;
(PID.TID 0000.0001) PTRACERS_diffKrNr = /* Vertical Diffusivity */
(PID.TID 0000.0001)    35 @  1.000000000000000E-05              /* K =  1: 35 */
(PID.TID 0000.0001)     ;
(PID.TID 0000.0001) PTRACERS_useGMRedi = /* apply GM-Redi */
(PID.TID 0000.0001)                   F
(PID.TID 0000.0001)     ;
(PID.TID 0000.0001) PTRACERS_useDWNSLP = /* apply DOWN-SLOPE Flow */
(PID.TID 0000.0001)                   F
(PID.TID 0000.0001)     ;
(PID.TID 0000.0001) PTRACERS_useKPP = /* apply KPP scheme */
(PID.TID 0000.0001)                   F
(PID.TID 0000.0001)     ;
(PID.TID 0000.0001) PTRACERS_ref = /* Reference vertical profile */
(PID.TID 0000.0001)    35 @  0.000000000000000E+00              /* K =  1: 35 */
(PID.TID 0000.0001)     ;
(PID.TID 0000.0001) PTRACERS_EvPrRn =/* tracer conc. in Evap. & Rain */
(PID.TID 0000.0001)                 1.234567000000000E+05
(PID.TID 0000.0001)     ;
(PID.TID 0000.0001)  -----------------------------------
(PID.TID 0000.0001)  tracer number :   72
(PID.TID 0000.0001) PTRACERS_names = /* Tracer short name */
(PID.TID 0000.0001)               'c54'
(PID.TID 0000.0001)     ;
(PID.TID 0000.0001) PTRACERS_long_names = /* Tracer long name */
(PID.TID 0000.0001)               ''
(PID.TID 0000.0001)     ;
(PID.TID 0000.0001) PTRACERS_ioLabel = /* tracer IO Label */
(PID.TID 0000.0001)               '72'
(PID.TID 0000.0001)     ;
(PID.TID 0000.0001) PTRACERS_advScheme = /* Advection Scheme */
(PID.TID 0000.0001)                      33
(PID.TID 0000.0001)     ;
(PID.TID 0000.0001) PTRACERS_SOM_Advection = /* tracer uses SOM advection scheme */
(PID.TID 0000.0001)                   F
(PID.TID 0000.0001)     ;
(PID.TID 0000.0001) PTRACERS_ImplVertAdv = /* implicit vert. advection flag */
(PID.TID 0000.0001)                   F
(PID.TID 0000.0001)     ;
(PID.TID 0000.0001) PTRACERS_MultiDimAdv = /* tracer uses Multi-Dim advection */
(PID.TID 0000.0001)                   T
(PID.TID 0000.0001)     ;
(PID.TID 0000.0001) PTRACERS_AdamsBashGtr = /* apply AB on tracer tendency */
(PID.TID 0000.0001)                   F
(PID.TID 0000.0001)     ;
(PID.TID 0000.0001) PTRACERS_AdamsBash_Tr = /* apply AB on passive tracer */
(PID.TID 0000.0001)                   F
(PID.TID 0000.0001)     ;
(PID.TID 0000.0001) PTRACERS_diffKh = /* Laplacian Diffusivity */
(PID.TID 0000.0001)                 0.000000000000000E+00
(PID.TID 0000.0001)     ;
(PID.TID 0000.0001) PTRACERS_diffK4 = /* Biharmonic Diffusivity */
(PID.TID 0000.0001)                 0.000000000000000E+00
(PID.TID 0000.0001)     ;
(PID.TID 0000.0001) PTRACERS_diffKrNr = /* Vertical Diffusivity */
(PID.TID 0000.0001)    35 @  1.000000000000000E-05              /* K =  1: 35 */
(PID.TID 0000.0001)     ;
(PID.TID 0000.0001) PTRACERS_useGMRedi = /* apply GM-Redi */
(PID.TID 0000.0001)                   F
(PID.TID 0000.0001)     ;
(PID.TID 0000.0001) PTRACERS_useDWNSLP = /* apply DOWN-SLOPE Flow */
(PID.TID 0000.0001)                   F
(PID.TID 0000.0001)     ;
(PID.TID 0000.0001) PTRACERS_useKPP = /* apply KPP scheme */
(PID.TID 0000.0001)                   F
(PID.TID 0000.0001)     ;
(PID.TID 0000.0001) PTRACERS_ref = /* Reference vertical profile */
(PID.TID 0000.0001)    35 @  0.000000000000000E+00              /* K =  1: 35 */
(PID.TID 0000.0001)     ;
(PID.TID 0000.0001) PTRACERS_EvPrRn =/* tracer conc. in Evap. & Rain */
(PID.TID 0000.0001)                 1.234567000000000E+05
(PID.TID 0000.0001)     ;
(PID.TID 0000.0001)  -----------------------------------
(PID.TID 0000.0001)  tracer number :   73
(PID.TID 0000.0001) PTRACERS_names = /* Tracer short name */
(PID.TID 0000.0001)               'c55'
(PID.TID 0000.0001)     ;
(PID.TID 0000.0001) PTRACERS_long_names = /* Tracer long name */
(PID.TID 0000.0001)               ''
(PID.TID 0000.0001)     ;
(PID.TID 0000.0001) PTRACERS_ioLabel = /* tracer IO Label */
(PID.TID 0000.0001)               '73'
(PID.TID 0000.0001)     ;
(PID.TID 0000.0001) PTRACERS_advScheme = /* Advection Scheme */
(PID.TID 0000.0001)                      33
(PID.TID 0000.0001)     ;
(PID.TID 0000.0001) PTRACERS_SOM_Advection = /* tracer uses SOM advection scheme */
(PID.TID 0000.0001)                   F
(PID.TID 0000.0001)     ;
(PID.TID 0000.0001) PTRACERS_ImplVertAdv = /* implicit vert. advection flag */
(PID.TID 0000.0001)                   F
(PID.TID 0000.0001)     ;
(PID.TID 0000.0001) PTRACERS_MultiDimAdv = /* tracer uses Multi-Dim advection */
(PID.TID 0000.0001)                   T
(PID.TID 0000.0001)     ;
(PID.TID 0000.0001) PTRACERS_AdamsBashGtr = /* apply AB on tracer tendency */
(PID.TID 0000.0001)                   F
(PID.TID 0000.0001)     ;
(PID.TID 0000.0001) PTRACERS_AdamsBash_Tr = /* apply AB on passive tracer */
(PID.TID 0000.0001)                   F
(PID.TID 0000.0001)     ;
(PID.TID 0000.0001) PTRACERS_diffKh = /* Laplacian Diffusivity */
(PID.TID 0000.0001)                 0.000000000000000E+00
(PID.TID 0000.0001)     ;
(PID.TID 0000.0001) PTRACERS_diffK4 = /* Biharmonic Diffusivity */
(PID.TID 0000.0001)                 0.000000000000000E+00
(PID.TID 0000.0001)     ;
(PID.TID 0000.0001) PTRACERS_diffKrNr = /* Vertical Diffusivity */
(PID.TID 0000.0001)    35 @  1.000000000000000E-05              /* K =  1: 35 */
(PID.TID 0000.0001)     ;
(PID.TID 0000.0001) PTRACERS_useGMRedi = /* apply GM-Redi */
(PID.TID 0000.0001)                   F
(PID.TID 0000.0001)     ;
(PID.TID 0000.0001) PTRACERS_useDWNSLP = /* apply DOWN-SLOPE Flow */
(PID.TID 0000.0001)                   F
(PID.TID 0000.0001)     ;
(PID.TID 0000.0001) PTRACERS_useKPP = /* apply KPP scheme */
(PID.TID 0000.0001)                   F
(PID.TID 0000.0001)     ;
(PID.TID 0000.0001) PTRACERS_ref = /* Reference vertical profile */
(PID.TID 0000.0001)    35 @  0.000000000000000E+00              /* K =  1: 35 */
(PID.TID 0000.0001)     ;
(PID.TID 0000.0001) PTRACERS_EvPrRn =/* tracer conc. in Evap. & Rain */
(PID.TID 0000.0001)                 1.234567000000000E+05
(PID.TID 0000.0001)     ;
(PID.TID 0000.0001)  -----------------------------------
(PID.TID 0000.0001)  tracer number :   74
(PID.TID 0000.0001) PTRACERS_names = /* Tracer short name */
(PID.TID 0000.0001)               'c56'
(PID.TID 0000.0001)     ;
(PID.TID 0000.0001) PTRACERS_long_names = /* Tracer long name */
(PID.TID 0000.0001)               ''
(PID.TID 0000.0001)     ;
(PID.TID 0000.0001) PTRACERS_ioLabel = /* tracer IO Label */
(PID.TID 0000.0001)               '74'
(PID.TID 0000.0001)     ;
(PID.TID 0000.0001) PTRACERS_advScheme = /* Advection Scheme */
(PID.TID 0000.0001)                      33
(PID.TID 0000.0001)     ;
(PID.TID 0000.0001) PTRACERS_SOM_Advection = /* tracer uses SOM advection scheme */
(PID.TID 0000.0001)                   F
(PID.TID 0000.0001)     ;
(PID.TID 0000.0001) PTRACERS_ImplVertAdv = /* implicit vert. advection flag */
(PID.TID 0000.0001)                   F
(PID.TID 0000.0001)     ;
(PID.TID 0000.0001) PTRACERS_MultiDimAdv = /* tracer uses Multi-Dim advection */
(PID.TID 0000.0001)                   T
(PID.TID 0000.0001)     ;
(PID.TID 0000.0001) PTRACERS_AdamsBashGtr = /* apply AB on tracer tendency */
(PID.TID 0000.0001)                   F
(PID.TID 0000.0001)     ;
(PID.TID 0000.0001) PTRACERS_AdamsBash_Tr = /* apply AB on passive tracer */
(PID.TID 0000.0001)                   F
(PID.TID 0000.0001)     ;
(PID.TID 0000.0001) PTRACERS_diffKh = /* Laplacian Diffusivity */
(PID.TID 0000.0001)                 0.000000000000000E+00
(PID.TID 0000.0001)     ;
(PID.TID 0000.0001) PTRACERS_diffK4 = /* Biharmonic Diffusivity */
(PID.TID 0000.0001)                 0.000000000000000E+00
(PID.TID 0000.0001)     ;
(PID.TID 0000.0001) PTRACERS_diffKrNr = /* Vertical Diffusivity */
(PID.TID 0000.0001)    35 @  1.000000000000000E-05              /* K =  1: 35 */
(PID.TID 0000.0001)     ;
(PID.TID 0000.0001) PTRACERS_useGMRedi = /* apply GM-Redi */
(PID.TID 0000.0001)                   F
(PID.TID 0000.0001)     ;
(PID.TID 0000.0001) PTRACERS_useDWNSLP = /* apply DOWN-SLOPE Flow */
(PID.TID 0000.0001)                   F
(PID.TID 0000.0001)     ;
(PID.TID 0000.0001) PTRACERS_useKPP = /* apply KPP scheme */
(PID.TID 0000.0001)                   F
(PID.TID 0000.0001)     ;
(PID.TID 0000.0001) PTRACERS_ref = /* Reference vertical profile */
(PID.TID 0000.0001)    35 @  0.000000000000000E+00              /* K =  1: 35 */
(PID.TID 0000.0001)     ;
(PID.TID 0000.0001) PTRACERS_EvPrRn =/* tracer conc. in Evap. & Rain */
(PID.TID 0000.0001)                 1.234567000000000E+05
(PID.TID 0000.0001)     ;
(PID.TID 0000.0001)  -----------------------------------
(PID.TID 0000.0001)  tracer number :   75
(PID.TID 0000.0001) PTRACERS_names = /* Tracer short name */
(PID.TID 0000.0001)               'c57'
(PID.TID 0000.0001)     ;
(PID.TID 0000.0001) PTRACERS_long_names = /* Tracer long name */
(PID.TID 0000.0001)               ''
(PID.TID 0000.0001)     ;
(PID.TID 0000.0001) PTRACERS_ioLabel = /* tracer IO Label */
(PID.TID 0000.0001)               '75'
(PID.TID 0000.0001)     ;
(PID.TID 0000.0001) PTRACERS_advScheme = /* Advection Scheme */
(PID.TID 0000.0001)                      33
(PID.TID 0000.0001)     ;
(PID.TID 0000.0001) PTRACERS_SOM_Advection = /* tracer uses SOM advection scheme */
(PID.TID 0000.0001)                   F
(PID.TID 0000.0001)     ;
(PID.TID 0000.0001) PTRACERS_ImplVertAdv = /* implicit vert. advection flag */
(PID.TID 0000.0001)                   F
(PID.TID 0000.0001)     ;
(PID.TID 0000.0001) PTRACERS_MultiDimAdv = /* tracer uses Multi-Dim advection */
(PID.TID 0000.0001)                   T
(PID.TID 0000.0001)     ;
(PID.TID 0000.0001) PTRACERS_AdamsBashGtr = /* apply AB on tracer tendency */
(PID.TID 0000.0001)                   F
(PID.TID 0000.0001)     ;
(PID.TID 0000.0001) PTRACERS_AdamsBash_Tr = /* apply AB on passive tracer */
(PID.TID 0000.0001)                   F
(PID.TID 0000.0001)     ;
(PID.TID 0000.0001) PTRACERS_diffKh = /* Laplacian Diffusivity */
(PID.TID 0000.0001)                 0.000000000000000E+00
(PID.TID 0000.0001)     ;
(PID.TID 0000.0001) PTRACERS_diffK4 = /* Biharmonic Diffusivity */
(PID.TID 0000.0001)                 0.000000000000000E+00
(PID.TID 0000.0001)     ;
(PID.TID 0000.0001) PTRACERS_diffKrNr = /* Vertical Diffusivity */
(PID.TID 0000.0001)    35 @  1.000000000000000E-05              /* K =  1: 35 */
(PID.TID 0000.0001)     ;
(PID.TID 0000.0001) PTRACERS_useGMRedi = /* apply GM-Redi */
(PID.TID 0000.0001)                   F
(PID.TID 0000.0001)     ;
(PID.TID 0000.0001) PTRACERS_useDWNSLP = /* apply DOWN-SLOPE Flow */
(PID.TID 0000.0001)                   F
(PID.TID 0000.0001)     ;
(PID.TID 0000.0001) PTRACERS_useKPP = /* apply KPP scheme */
(PID.TID 0000.0001)                   F
(PID.TID 0000.0001)     ;
(PID.TID 0000.0001) PTRACERS_ref = /* Reference vertical profile */
(PID.TID 0000.0001)    35 @  0.000000000000000E+00              /* K =  1: 35 */
(PID.TID 0000.0001)     ;
(PID.TID 0000.0001) PTRACERS_EvPrRn =/* tracer conc. in Evap. & Rain */
(PID.TID 0000.0001)                 1.234567000000000E+05
(PID.TID 0000.0001)     ;
(PID.TID 0000.0001)  -----------------------------------
(PID.TID 0000.0001)  tracer number :   76
(PID.TID 0000.0001) PTRACERS_names = /* Tracer short name */
(PID.TID 0000.0001)               'c58'
(PID.TID 0000.0001)     ;
(PID.TID 0000.0001) PTRACERS_long_names = /* Tracer long name */
(PID.TID 0000.0001)               ''
(PID.TID 0000.0001)     ;
(PID.TID 0000.0001) PTRACERS_ioLabel = /* tracer IO Label */
(PID.TID 0000.0001)               '76'
(PID.TID 0000.0001)     ;
(PID.TID 0000.0001) PTRACERS_advScheme = /* Advection Scheme */
(PID.TID 0000.0001)                      33
(PID.TID 0000.0001)     ;
(PID.TID 0000.0001) PTRACERS_SOM_Advection = /* tracer uses SOM advection scheme */
(PID.TID 0000.0001)                   F
(PID.TID 0000.0001)     ;
(PID.TID 0000.0001) PTRACERS_ImplVertAdv = /* implicit vert. advection flag */
(PID.TID 0000.0001)                   F
(PID.TID 0000.0001)     ;
(PID.TID 0000.0001) PTRACERS_MultiDimAdv = /* tracer uses Multi-Dim advection */
(PID.TID 0000.0001)                   T
(PID.TID 0000.0001)     ;
(PID.TID 0000.0001) PTRACERS_AdamsBashGtr = /* apply AB on tracer tendency */
(PID.TID 0000.0001)                   F
(PID.TID 0000.0001)     ;
(PID.TID 0000.0001) PTRACERS_AdamsBash_Tr = /* apply AB on passive tracer */
(PID.TID 0000.0001)                   F
(PID.TID 0000.0001)     ;
(PID.TID 0000.0001) PTRACERS_diffKh = /* Laplacian Diffusivity */
(PID.TID 0000.0001)                 0.000000000000000E+00
(PID.TID 0000.0001)     ;
(PID.TID 0000.0001) PTRACERS_diffK4 = /* Biharmonic Diffusivity */
(PID.TID 0000.0001)                 0.000000000000000E+00
(PID.TID 0000.0001)     ;
(PID.TID 0000.0001) PTRACERS_diffKrNr = /* Vertical Diffusivity */
(PID.TID 0000.0001)    35 @  1.000000000000000E-05              /* K =  1: 35 */
(PID.TID 0000.0001)     ;
(PID.TID 0000.0001) PTRACERS_useGMRedi = /* apply GM-Redi */
(PID.TID 0000.0001)                   F
(PID.TID 0000.0001)     ;
(PID.TID 0000.0001) PTRACERS_useDWNSLP = /* apply DOWN-SLOPE Flow */
(PID.TID 0000.0001)                   F
(PID.TID 0000.0001)     ;
(PID.TID 0000.0001) PTRACERS_useKPP = /* apply KPP scheme */
(PID.TID 0000.0001)                   F
(PID.TID 0000.0001)     ;
(PID.TID 0000.0001) PTRACERS_ref = /* Reference vertical profile */
(PID.TID 0000.0001)    35 @  0.000000000000000E+00              /* K =  1: 35 */
(PID.TID 0000.0001)     ;
(PID.TID 0000.0001) PTRACERS_EvPrRn =/* tracer conc. in Evap. & Rain */
(PID.TID 0000.0001)                 1.234567000000000E+05
(PID.TID 0000.0001)     ;
(PID.TID 0000.0001)  -----------------------------------
(PID.TID 0000.0001)  tracer number :   77
(PID.TID 0000.0001) PTRACERS_names = /* Tracer short name */
(PID.TID 0000.0001)               'c59'
(PID.TID 0000.0001)     ;
(PID.TID 0000.0001) PTRACERS_long_names = /* Tracer long name */
(PID.TID 0000.0001)               ''
(PID.TID 0000.0001)     ;
(PID.TID 0000.0001) PTRACERS_ioLabel = /* tracer IO Label */
(PID.TID 0000.0001)               '77'
(PID.TID 0000.0001)     ;
(PID.TID 0000.0001) PTRACERS_advScheme = /* Advection Scheme */
(PID.TID 0000.0001)                      33
(PID.TID 0000.0001)     ;
(PID.TID 0000.0001) PTRACERS_SOM_Advection = /* tracer uses SOM advection scheme */
(PID.TID 0000.0001)                   F
(PID.TID 0000.0001)     ;
(PID.TID 0000.0001) PTRACERS_ImplVertAdv = /* implicit vert. advection flag */
(PID.TID 0000.0001)                   F
(PID.TID 0000.0001)     ;
(PID.TID 0000.0001) PTRACERS_MultiDimAdv = /* tracer uses Multi-Dim advection */
(PID.TID 0000.0001)                   T
(PID.TID 0000.0001)     ;
(PID.TID 0000.0001) PTRACERS_AdamsBashGtr = /* apply AB on tracer tendency */
(PID.TID 0000.0001)                   F
(PID.TID 0000.0001)     ;
(PID.TID 0000.0001) PTRACERS_AdamsBash_Tr = /* apply AB on passive tracer */
(PID.TID 0000.0001)                   F
(PID.TID 0000.0001)     ;
(PID.TID 0000.0001) PTRACERS_diffKh = /* Laplacian Diffusivity */
(PID.TID 0000.0001)                 0.000000000000000E+00
(PID.TID 0000.0001)     ;
(PID.TID 0000.0001) PTRACERS_diffK4 = /* Biharmonic Diffusivity */
(PID.TID 0000.0001)                 0.000000000000000E+00
(PID.TID 0000.0001)     ;
(PID.TID 0000.0001) PTRACERS_diffKrNr = /* Vertical Diffusivity */
(PID.TID 0000.0001)    35 @  1.000000000000000E-05              /* K =  1: 35 */
(PID.TID 0000.0001)     ;
(PID.TID 0000.0001) PTRACERS_useGMRedi = /* apply GM-Redi */
(PID.TID 0000.0001)                   F
(PID.TID 0000.0001)     ;
(PID.TID 0000.0001) PTRACERS_useDWNSLP = /* apply DOWN-SLOPE Flow */
(PID.TID 0000.0001)                   F
(PID.TID 0000.0001)     ;
(PID.TID 0000.0001) PTRACERS_useKPP = /* apply KPP scheme */
(PID.TID 0000.0001)                   F
(PID.TID 0000.0001)     ;
(PID.TID 0000.0001) PTRACERS_ref = /* Reference vertical profile */
(PID.TID 0000.0001)    35 @  0.000000000000000E+00              /* K =  1: 35 */
(PID.TID 0000.0001)     ;
(PID.TID 0000.0001) PTRACERS_EvPrRn =/* tracer conc. in Evap. & Rain */
(PID.TID 0000.0001)                 1.234567000000000E+05
(PID.TID 0000.0001)     ;
(PID.TID 0000.0001)  -----------------------------------
(PID.TID 0000.0001)  tracer number :   78
(PID.TID 0000.0001) PTRACERS_names = /* Tracer short name */
(PID.TID 0000.0001)               'c60'
(PID.TID 0000.0001)     ;
(PID.TID 0000.0001) PTRACERS_long_names = /* Tracer long name */
(PID.TID 0000.0001)               ''
(PID.TID 0000.0001)     ;
(PID.TID 0000.0001) PTRACERS_ioLabel = /* tracer IO Label */
(PID.TID 0000.0001)               '78'
(PID.TID 0000.0001)     ;
(PID.TID 0000.0001) PTRACERS_advScheme = /* Advection Scheme */
(PID.TID 0000.0001)                      33
(PID.TID 0000.0001)     ;
(PID.TID 0000.0001) PTRACERS_SOM_Advection = /* tracer uses SOM advection scheme */
(PID.TID 0000.0001)                   F
(PID.TID 0000.0001)     ;
(PID.TID 0000.0001) PTRACERS_ImplVertAdv = /* implicit vert. advection flag */
(PID.TID 0000.0001)                   F
(PID.TID 0000.0001)     ;
(PID.TID 0000.0001) PTRACERS_MultiDimAdv = /* tracer uses Multi-Dim advection */
(PID.TID 0000.0001)                   T
(PID.TID 0000.0001)     ;
(PID.TID 0000.0001) PTRACERS_AdamsBashGtr = /* apply AB on tracer tendency */
(PID.TID 0000.0001)                   F
(PID.TID 0000.0001)     ;
(PID.TID 0000.0001) PTRACERS_AdamsBash_Tr = /* apply AB on passive tracer */
(PID.TID 0000.0001)                   F
(PID.TID 0000.0001)     ;
(PID.TID 0000.0001) PTRACERS_diffKh = /* Laplacian Diffusivity */
(PID.TID 0000.0001)                 0.000000000000000E+00
(PID.TID 0000.0001)     ;
(PID.TID 0000.0001) PTRACERS_diffK4 = /* Biharmonic Diffusivity */
(PID.TID 0000.0001)                 0.000000000000000E+00
(PID.TID 0000.0001)     ;
(PID.TID 0000.0001) PTRACERS_diffKrNr = /* Vertical Diffusivity */
(PID.TID 0000.0001)    35 @  1.000000000000000E-05              /* K =  1: 35 */
(PID.TID 0000.0001)     ;
(PID.TID 0000.0001) PTRACERS_useGMRedi = /* apply GM-Redi */
(PID.TID 0000.0001)                   F
(PID.TID 0000.0001)     ;
(PID.TID 0000.0001) PTRACERS_useDWNSLP = /* apply DOWN-SLOPE Flow */
(PID.TID 0000.0001)                   F
(PID.TID 0000.0001)     ;
(PID.TID 0000.0001) PTRACERS_useKPP = /* apply KPP scheme */
(PID.TID 0000.0001)                   F
(PID.TID 0000.0001)     ;
(PID.TID 0000.0001) PTRACERS_ref = /* Reference vertical profile */
(PID.TID 0000.0001)    35 @  0.000000000000000E+00              /* K =  1: 35 */
(PID.TID 0000.0001)     ;
(PID.TID 0000.0001) PTRACERS_EvPrRn =/* tracer conc. in Evap. & Rain */
(PID.TID 0000.0001)                 1.234567000000000E+05
(PID.TID 0000.0001)     ;
(PID.TID 0000.0001)  -----------------------------------
(PID.TID 0000.0001)  tracer number :   79
(PID.TID 0000.0001) PTRACERS_names = /* Tracer short name */
(PID.TID 0000.0001)               'c61'
(PID.TID 0000.0001)     ;
(PID.TID 0000.0001) PTRACERS_long_names = /* Tracer long name */
(PID.TID 0000.0001)               ''
(PID.TID 0000.0001)     ;
(PID.TID 0000.0001) PTRACERS_ioLabel = /* tracer IO Label */
(PID.TID 0000.0001)               '79'
(PID.TID 0000.0001)     ;
(PID.TID 0000.0001) PTRACERS_advScheme = /* Advection Scheme */
(PID.TID 0000.0001)                      33
(PID.TID 0000.0001)     ;
(PID.TID 0000.0001) PTRACERS_SOM_Advection = /* tracer uses SOM advection scheme */
(PID.TID 0000.0001)                   F
(PID.TID 0000.0001)     ;
(PID.TID 0000.0001) PTRACERS_ImplVertAdv = /* implicit vert. advection flag */
(PID.TID 0000.0001)                   F
(PID.TID 0000.0001)     ;
(PID.TID 0000.0001) PTRACERS_MultiDimAdv = /* tracer uses Multi-Dim advection */
(PID.TID 0000.0001)                   T
(PID.TID 0000.0001)     ;
(PID.TID 0000.0001) PTRACERS_AdamsBashGtr = /* apply AB on tracer tendency */
(PID.TID 0000.0001)                   F
(PID.TID 0000.0001)     ;
(PID.TID 0000.0001) PTRACERS_AdamsBash_Tr = /* apply AB on passive tracer */
(PID.TID 0000.0001)                   F
(PID.TID 0000.0001)     ;
(PID.TID 0000.0001) PTRACERS_diffKh = /* Laplacian Diffusivity */
(PID.TID 0000.0001)                 0.000000000000000E+00
(PID.TID 0000.0001)     ;
(PID.TID 0000.0001) PTRACERS_diffK4 = /* Biharmonic Diffusivity */
(PID.TID 0000.0001)                 0.000000000000000E+00
(PID.TID 0000.0001)     ;
(PID.TID 0000.0001) PTRACERS_diffKrNr = /* Vertical Diffusivity */
(PID.TID 0000.0001)    35 @  1.000000000000000E-05              /* K =  1: 35 */
(PID.TID 0000.0001)     ;
(PID.TID 0000.0001) PTRACERS_useGMRedi = /* apply GM-Redi */
(PID.TID 0000.0001)                   F
(PID.TID 0000.0001)     ;
(PID.TID 0000.0001) PTRACERS_useDWNSLP = /* apply DOWN-SLOPE Flow */
(PID.TID 0000.0001)                   F
(PID.TID 0000.0001)     ;
(PID.TID 0000.0001) PTRACERS_useKPP = /* apply KPP scheme */
(PID.TID 0000.0001)                   F
(PID.TID 0000.0001)     ;
(PID.TID 0000.0001) PTRACERS_ref = /* Reference vertical profile */
(PID.TID 0000.0001)    35 @  0.000000000000000E+00              /* K =  1: 35 */
(PID.TID 0000.0001)     ;
(PID.TID 0000.0001) PTRACERS_EvPrRn =/* tracer conc. in Evap. & Rain */
(PID.TID 0000.0001)                 1.234567000000000E+05
(PID.TID 0000.0001)     ;
(PID.TID 0000.0001)  -----------------------------------
(PID.TID 0000.0001)  tracer number :   80
(PID.TID 0000.0001) PTRACERS_names = /* Tracer short name */
(PID.TID 0000.0001)               'c62'
(PID.TID 0000.0001)     ;
(PID.TID 0000.0001) PTRACERS_long_names = /* Tracer long name */
(PID.TID 0000.0001)               ''
(PID.TID 0000.0001)     ;
(PID.TID 0000.0001) PTRACERS_ioLabel = /* tracer IO Label */
(PID.TID 0000.0001)               '80'
(PID.TID 0000.0001)     ;
(PID.TID 0000.0001) PTRACERS_advScheme = /* Advection Scheme */
(PID.TID 0000.0001)                      33
(PID.TID 0000.0001)     ;
(PID.TID 0000.0001) PTRACERS_SOM_Advection = /* tracer uses SOM advection scheme */
(PID.TID 0000.0001)                   F
(PID.TID 0000.0001)     ;
(PID.TID 0000.0001) PTRACERS_ImplVertAdv = /* implicit vert. advection flag */
(PID.TID 0000.0001)                   F
(PID.TID 0000.0001)     ;
(PID.TID 0000.0001) PTRACERS_MultiDimAdv = /* tracer uses Multi-Dim advection */
(PID.TID 0000.0001)                   T
(PID.TID 0000.0001)     ;
(PID.TID 0000.0001) PTRACERS_AdamsBashGtr = /* apply AB on tracer tendency */
(PID.TID 0000.0001)                   F
(PID.TID 0000.0001)     ;
(PID.TID 0000.0001) PTRACERS_AdamsBash_Tr = /* apply AB on passive tracer */
(PID.TID 0000.0001)                   F
(PID.TID 0000.0001)     ;
(PID.TID 0000.0001) PTRACERS_diffKh = /* Laplacian Diffusivity */
(PID.TID 0000.0001)                 0.000000000000000E+00
(PID.TID 0000.0001)     ;
(PID.TID 0000.0001) PTRACERS_diffK4 = /* Biharmonic Diffusivity */
(PID.TID 0000.0001)                 0.000000000000000E+00
(PID.TID 0000.0001)     ;
(PID.TID 0000.0001) PTRACERS_diffKrNr = /* Vertical Diffusivity */
(PID.TID 0000.0001)    35 @  1.000000000000000E-05              /* K =  1: 35 */
(PID.TID 0000.0001)     ;
(PID.TID 0000.0001) PTRACERS_useGMRedi = /* apply GM-Redi */
(PID.TID 0000.0001)                   F
(PID.TID 0000.0001)     ;
(PID.TID 0000.0001) PTRACERS_useDWNSLP = /* apply DOWN-SLOPE Flow */
(PID.TID 0000.0001)                   F
(PID.TID 0000.0001)     ;
(PID.TID 0000.0001) PTRACERS_useKPP = /* apply KPP scheme */
(PID.TID 0000.0001)                   F
(PID.TID 0000.0001)     ;
(PID.TID 0000.0001) PTRACERS_ref = /* Reference vertical profile */
(PID.TID 0000.0001)    35 @  0.000000000000000E+00              /* K =  1: 35 */
(PID.TID 0000.0001)     ;
(PID.TID 0000.0001) PTRACERS_EvPrRn =/* tracer conc. in Evap. & Rain */
(PID.TID 0000.0001)                 1.234567000000000E+05
(PID.TID 0000.0001)     ;
(PID.TID 0000.0001)  -----------------------------------
(PID.TID 0000.0001)  tracer number :   81
(PID.TID 0000.0001) PTRACERS_names = /* Tracer short name */
(PID.TID 0000.0001)               'c63'
(PID.TID 0000.0001)     ;
(PID.TID 0000.0001) PTRACERS_long_names = /* Tracer long name */
(PID.TID 0000.0001)               ''
(PID.TID 0000.0001)     ;
(PID.TID 0000.0001) PTRACERS_ioLabel = /* tracer IO Label */
(PID.TID 0000.0001)               '81'
(PID.TID 0000.0001)     ;
(PID.TID 0000.0001) PTRACERS_advScheme = /* Advection Scheme */
(PID.TID 0000.0001)                      33
(PID.TID 0000.0001)     ;
(PID.TID 0000.0001) PTRACERS_SOM_Advection = /* tracer uses SOM advection scheme */
(PID.TID 0000.0001)                   F
(PID.TID 0000.0001)     ;
(PID.TID 0000.0001) PTRACERS_ImplVertAdv = /* implicit vert. advection flag */
(PID.TID 0000.0001)                   F
(PID.TID 0000.0001)     ;
(PID.TID 0000.0001) PTRACERS_MultiDimAdv = /* tracer uses Multi-Dim advection */
(PID.TID 0000.0001)                   T
(PID.TID 0000.0001)     ;
(PID.TID 0000.0001) PTRACERS_AdamsBashGtr = /* apply AB on tracer tendency */
(PID.TID 0000.0001)                   F
(PID.TID 0000.0001)     ;
(PID.TID 0000.0001) PTRACERS_AdamsBash_Tr = /* apply AB on passive tracer */
(PID.TID 0000.0001)                   F
(PID.TID 0000.0001)     ;
(PID.TID 0000.0001) PTRACERS_diffKh = /* Laplacian Diffusivity */
(PID.TID 0000.0001)                 0.000000000000000E+00
(PID.TID 0000.0001)     ;
(PID.TID 0000.0001) PTRACERS_diffK4 = /* Biharmonic Diffusivity */
(PID.TID 0000.0001)                 0.000000000000000E+00
(PID.TID 0000.0001)     ;
(PID.TID 0000.0001) PTRACERS_diffKrNr = /* Vertical Diffusivity */
(PID.TID 0000.0001)    35 @  1.000000000000000E-05              /* K =  1: 35 */
(PID.TID 0000.0001)     ;
(PID.TID 0000.0001) PTRACERS_useGMRedi = /* apply GM-Redi */
(PID.TID 0000.0001)                   F
(PID.TID 0000.0001)     ;
(PID.TID 0000.0001) PTRACERS_useDWNSLP = /* apply DOWN-SLOPE Flow */
(PID.TID 0000.0001)                   F
(PID.TID 0000.0001)     ;
(PID.TID 0000.0001) PTRACERS_useKPP = /* apply KPP scheme */
(PID.TID 0000.0001)                   F
(PID.TID 0000.0001)     ;
(PID.TID 0000.0001) PTRACERS_ref = /* Reference vertical profile */
(PID.TID 0000.0001)    35 @  0.000000000000000E+00              /* K =  1: 35 */
(PID.TID 0000.0001)     ;
(PID.TID 0000.0001) PTRACERS_EvPrRn =/* tracer conc. in Evap. & Rain */
(PID.TID 0000.0001)                 1.234567000000000E+05
(PID.TID 0000.0001)     ;
(PID.TID 0000.0001)  -----------------------------------
(PID.TID 0000.0001)  tracer number :   82
(PID.TID 0000.0001) PTRACERS_names = /* Tracer short name */
(PID.TID 0000.0001)               'c64'
(PID.TID 0000.0001)     ;
(PID.TID 0000.0001) PTRACERS_long_names = /* Tracer long name */
(PID.TID 0000.0001)               ''
(PID.TID 0000.0001)     ;
(PID.TID 0000.0001) PTRACERS_ioLabel = /* tracer IO Label */
(PID.TID 0000.0001)               '82'
(PID.TID 0000.0001)     ;
(PID.TID 0000.0001) PTRACERS_advScheme = /* Advection Scheme */
(PID.TID 0000.0001)                      33
(PID.TID 0000.0001)     ;
(PID.TID 0000.0001) PTRACERS_SOM_Advection = /* tracer uses SOM advection scheme */
(PID.TID 0000.0001)                   F
(PID.TID 0000.0001)     ;
(PID.TID 0000.0001) PTRACERS_ImplVertAdv = /* implicit vert. advection flag */
(PID.TID 0000.0001)                   F
(PID.TID 0000.0001)     ;
(PID.TID 0000.0001) PTRACERS_MultiDimAdv = /* tracer uses Multi-Dim advection */
(PID.TID 0000.0001)                   T
(PID.TID 0000.0001)     ;
(PID.TID 0000.0001) PTRACERS_AdamsBashGtr = /* apply AB on tracer tendency */
(PID.TID 0000.0001)                   F
(PID.TID 0000.0001)     ;
(PID.TID 0000.0001) PTRACERS_AdamsBash_Tr = /* apply AB on passive tracer */
(PID.TID 0000.0001)                   F
(PID.TID 0000.0001)     ;
(PID.TID 0000.0001) PTRACERS_diffKh = /* Laplacian Diffusivity */
(PID.TID 0000.0001)                 0.000000000000000E+00
(PID.TID 0000.0001)     ;
(PID.TID 0000.0001) PTRACERS_diffK4 = /* Biharmonic Diffusivity */
(PID.TID 0000.0001)                 0.000000000000000E+00
(PID.TID 0000.0001)     ;
(PID.TID 0000.0001) PTRACERS_diffKrNr = /* Vertical Diffusivity */
(PID.TID 0000.0001)    35 @  1.000000000000000E-05              /* K =  1: 35 */
(PID.TID 0000.0001)     ;
(PID.TID 0000.0001) PTRACERS_useGMRedi = /* apply GM-Redi */
(PID.TID 0000.0001)                   F
(PID.TID 0000.0001)     ;
(PID.TID 0000.0001) PTRACERS_useDWNSLP = /* apply DOWN-SLOPE Flow */
(PID.TID 0000.0001)                   F
(PID.TID 0000.0001)     ;
(PID.TID 0000.0001) PTRACERS_useKPP = /* apply KPP scheme */
(PID.TID 0000.0001)                   F
(PID.TID 0000.0001)     ;
(PID.TID 0000.0001) PTRACERS_ref = /* Reference vertical profile */
(PID.TID 0000.0001)    35 @  0.000000000000000E+00              /* K =  1: 35 */
(PID.TID 0000.0001)     ;
(PID.TID 0000.0001) PTRACERS_EvPrRn =/* tracer conc. in Evap. & Rain */
(PID.TID 0000.0001)                 1.234567000000000E+05
(PID.TID 0000.0001)     ;
(PID.TID 0000.0001)  -----------------------------------
(PID.TID 0000.0001)  tracer number :   83
(PID.TID 0000.0001) PTRACERS_names = /* Tracer short name */
(PID.TID 0000.0001)               'c65'
(PID.TID 0000.0001)     ;
(PID.TID 0000.0001) PTRACERS_long_names = /* Tracer long name */
(PID.TID 0000.0001)               ''
(PID.TID 0000.0001)     ;
(PID.TID 0000.0001) PTRACERS_ioLabel = /* tracer IO Label */
(PID.TID 0000.0001)               '83'
(PID.TID 0000.0001)     ;
(PID.TID 0000.0001) PTRACERS_advScheme = /* Advection Scheme */
(PID.TID 0000.0001)                      33
(PID.TID 0000.0001)     ;
(PID.TID 0000.0001) PTRACERS_SOM_Advection = /* tracer uses SOM advection scheme */
(PID.TID 0000.0001)                   F
(PID.TID 0000.0001)     ;
(PID.TID 0000.0001) PTRACERS_ImplVertAdv = /* implicit vert. advection flag */
(PID.TID 0000.0001)                   F
(PID.TID 0000.0001)     ;
(PID.TID 0000.0001) PTRACERS_MultiDimAdv = /* tracer uses Multi-Dim advection */
(PID.TID 0000.0001)                   T
(PID.TID 0000.0001)     ;
(PID.TID 0000.0001) PTRACERS_AdamsBashGtr = /* apply AB on tracer tendency */
(PID.TID 0000.0001)                   F
(PID.TID 0000.0001)     ;
(PID.TID 0000.0001) PTRACERS_AdamsBash_Tr = /* apply AB on passive tracer */
(PID.TID 0000.0001)                   F
(PID.TID 0000.0001)     ;
(PID.TID 0000.0001) PTRACERS_diffKh = /* Laplacian Diffusivity */
(PID.TID 0000.0001)                 0.000000000000000E+00
(PID.TID 0000.0001)     ;
(PID.TID 0000.0001) PTRACERS_diffK4 = /* Biharmonic Diffusivity */
(PID.TID 0000.0001)                 0.000000000000000E+00
(PID.TID 0000.0001)     ;
(PID.TID 0000.0001) PTRACERS_diffKrNr = /* Vertical Diffusivity */
(PID.TID 0000.0001)    35 @  1.000000000000000E-05              /* K =  1: 35 */
(PID.TID 0000.0001)     ;
(PID.TID 0000.0001) PTRACERS_useGMRedi = /* apply GM-Redi */
(PID.TID 0000.0001)                   F
(PID.TID 0000.0001)     ;
(PID.TID 0000.0001) PTRACERS_useDWNSLP = /* apply DOWN-SLOPE Flow */
(PID.TID 0000.0001)                   F
(PID.TID 0000.0001)     ;
(PID.TID 0000.0001) PTRACERS_useKPP = /* apply KPP scheme */
(PID.TID 0000.0001)                   F
(PID.TID 0000.0001)     ;
(PID.TID 0000.0001) PTRACERS_ref = /* Reference vertical profile */
(PID.TID 0000.0001)    35 @  0.000000000000000E+00              /* K =  1: 35 */
(PID.TID 0000.0001)     ;
(PID.TID 0000.0001) PTRACERS_EvPrRn =/* tracer conc. in Evap. & Rain */
(PID.TID 0000.0001)                 1.234567000000000E+05
(PID.TID 0000.0001)     ;
(PID.TID 0000.0001)  -----------------------------------
(PID.TID 0000.0001)  tracer number :   84
(PID.TID 0000.0001) PTRACERS_names = /* Tracer short name */
(PID.TID 0000.0001)               'c66'
(PID.TID 0000.0001)     ;
(PID.TID 0000.0001) PTRACERS_long_names = /* Tracer long name */
(PID.TID 0000.0001)               ''
(PID.TID 0000.0001)     ;
(PID.TID 0000.0001) PTRACERS_ioLabel = /* tracer IO Label */
(PID.TID 0000.0001)               '84'
(PID.TID 0000.0001)     ;
(PID.TID 0000.0001) PTRACERS_advScheme = /* Advection Scheme */
(PID.TID 0000.0001)                      33
(PID.TID 0000.0001)     ;
(PID.TID 0000.0001) PTRACERS_SOM_Advection = /* tracer uses SOM advection scheme */
(PID.TID 0000.0001)                   F
(PID.TID 0000.0001)     ;
(PID.TID 0000.0001) PTRACERS_ImplVertAdv = /* implicit vert. advection flag */
(PID.TID 0000.0001)                   F
(PID.TID 0000.0001)     ;
(PID.TID 0000.0001) PTRACERS_MultiDimAdv = /* tracer uses Multi-Dim advection */
(PID.TID 0000.0001)                   T
(PID.TID 0000.0001)     ;
(PID.TID 0000.0001) PTRACERS_AdamsBashGtr = /* apply AB on tracer tendency */
(PID.TID 0000.0001)                   F
(PID.TID 0000.0001)     ;
(PID.TID 0000.0001) PTRACERS_AdamsBash_Tr = /* apply AB on passive tracer */
(PID.TID 0000.0001)                   F
(PID.TID 0000.0001)     ;
(PID.TID 0000.0001) PTRACERS_diffKh = /* Laplacian Diffusivity */
(PID.TID 0000.0001)                 0.000000000000000E+00
(PID.TID 0000.0001)     ;
(PID.TID 0000.0001) PTRACERS_diffK4 = /* Biharmonic Diffusivity */
(PID.TID 0000.0001)                 0.000000000000000E+00
(PID.TID 0000.0001)     ;
(PID.TID 0000.0001) PTRACERS_diffKrNr = /* Vertical Diffusivity */
(PID.TID 0000.0001)    35 @  1.000000000000000E-05              /* K =  1: 35 */
(PID.TID 0000.0001)     ;
(PID.TID 0000.0001) PTRACERS_useGMRedi = /* apply GM-Redi */
(PID.TID 0000.0001)                   F
(PID.TID 0000.0001)     ;
(PID.TID 0000.0001) PTRACERS_useDWNSLP = /* apply DOWN-SLOPE Flow */
(PID.TID 0000.0001)                   F
(PID.TID 0000.0001)     ;
(PID.TID 0000.0001) PTRACERS_useKPP = /* apply KPP scheme */
(PID.TID 0000.0001)                   F
(PID.TID 0000.0001)     ;
(PID.TID 0000.0001) PTRACERS_ref = /* Reference vertical profile */
(PID.TID 0000.0001)    35 @  0.000000000000000E+00              /* K =  1: 35 */
(PID.TID 0000.0001)     ;
(PID.TID 0000.0001) PTRACERS_EvPrRn =/* tracer conc. in Evap. & Rain */
(PID.TID 0000.0001)                 1.234567000000000E+05
(PID.TID 0000.0001)     ;
(PID.TID 0000.0001)  -----------------------------------
(PID.TID 0000.0001)  tracer number :   85
(PID.TID 0000.0001) PTRACERS_names = /* Tracer short name */
(PID.TID 0000.0001)               'c67'
(PID.TID 0000.0001)     ;
(PID.TID 0000.0001) PTRACERS_long_names = /* Tracer long name */
(PID.TID 0000.0001)               ''
(PID.TID 0000.0001)     ;
(PID.TID 0000.0001) PTRACERS_ioLabel = /* tracer IO Label */
(PID.TID 0000.0001)               '85'
(PID.TID 0000.0001)     ;
(PID.TID 0000.0001) PTRACERS_advScheme = /* Advection Scheme */
(PID.TID 0000.0001)                      33
(PID.TID 0000.0001)     ;
(PID.TID 0000.0001) PTRACERS_SOM_Advection = /* tracer uses SOM advection scheme */
(PID.TID 0000.0001)                   F
(PID.TID 0000.0001)     ;
(PID.TID 0000.0001) PTRACERS_ImplVertAdv = /* implicit vert. advection flag */
(PID.TID 0000.0001)                   F
(PID.TID 0000.0001)     ;
(PID.TID 0000.0001) PTRACERS_MultiDimAdv = /* tracer uses Multi-Dim advection */
(PID.TID 0000.0001)                   T
(PID.TID 0000.0001)     ;
(PID.TID 0000.0001) PTRACERS_AdamsBashGtr = /* apply AB on tracer tendency */
(PID.TID 0000.0001)                   F
(PID.TID 0000.0001)     ;
(PID.TID 0000.0001) PTRACERS_AdamsBash_Tr = /* apply AB on passive tracer */
(PID.TID 0000.0001)                   F
(PID.TID 0000.0001)     ;
(PID.TID 0000.0001) PTRACERS_diffKh = /* Laplacian Diffusivity */
(PID.TID 0000.0001)                 0.000000000000000E+00
(PID.TID 0000.0001)     ;
(PID.TID 0000.0001) PTRACERS_diffK4 = /* Biharmonic Diffusivity */
(PID.TID 0000.0001)                 0.000000000000000E+00
(PID.TID 0000.0001)     ;
(PID.TID 0000.0001) PTRACERS_diffKrNr = /* Vertical Diffusivity */
(PID.TID 0000.0001)    35 @  1.000000000000000E-05              /* K =  1: 35 */
(PID.TID 0000.0001)     ;
(PID.TID 0000.0001) PTRACERS_useGMRedi = /* apply GM-Redi */
(PID.TID 0000.0001)                   F
(PID.TID 0000.0001)     ;
(PID.TID 0000.0001) PTRACERS_useDWNSLP = /* apply DOWN-SLOPE Flow */
(PID.TID 0000.0001)                   F
(PID.TID 0000.0001)     ;
(PID.TID 0000.0001) PTRACERS_useKPP = /* apply KPP scheme */
(PID.TID 0000.0001)                   F
(PID.TID 0000.0001)     ;
(PID.TID 0000.0001) PTRACERS_ref = /* Reference vertical profile */
(PID.TID 0000.0001)    35 @  0.000000000000000E+00              /* K =  1: 35 */
(PID.TID 0000.0001)     ;
(PID.TID 0000.0001) PTRACERS_EvPrRn =/* tracer conc. in Evap. & Rain */
(PID.TID 0000.0001)                 1.234567000000000E+05
(PID.TID 0000.0001)     ;
(PID.TID 0000.0001)  -----------------------------------
(PID.TID 0000.0001)  tracer number :   86
(PID.TID 0000.0001) PTRACERS_names = /* Tracer short name */
(PID.TID 0000.0001)               'c68'
(PID.TID 0000.0001)     ;
(PID.TID 0000.0001) PTRACERS_long_names = /* Tracer long name */
(PID.TID 0000.0001)               ''
(PID.TID 0000.0001)     ;
(PID.TID 0000.0001) PTRACERS_ioLabel = /* tracer IO Label */
(PID.TID 0000.0001)               '86'
(PID.TID 0000.0001)     ;
(PID.TID 0000.0001) PTRACERS_advScheme = /* Advection Scheme */
(PID.TID 0000.0001)                      33
(PID.TID 0000.0001)     ;
(PID.TID 0000.0001) PTRACERS_SOM_Advection = /* tracer uses SOM advection scheme */
(PID.TID 0000.0001)                   F
(PID.TID 0000.0001)     ;
(PID.TID 0000.0001) PTRACERS_ImplVertAdv = /* implicit vert. advection flag */
(PID.TID 0000.0001)                   F
(PID.TID 0000.0001)     ;
(PID.TID 0000.0001) PTRACERS_MultiDimAdv = /* tracer uses Multi-Dim advection */
(PID.TID 0000.0001)                   T
(PID.TID 0000.0001)     ;
(PID.TID 0000.0001) PTRACERS_AdamsBashGtr = /* apply AB on tracer tendency */
(PID.TID 0000.0001)                   F
(PID.TID 0000.0001)     ;
(PID.TID 0000.0001) PTRACERS_AdamsBash_Tr = /* apply AB on passive tracer */
(PID.TID 0000.0001)                   F
(PID.TID 0000.0001)     ;
(PID.TID 0000.0001) PTRACERS_diffKh = /* Laplacian Diffusivity */
(PID.TID 0000.0001)                 0.000000000000000E+00
(PID.TID 0000.0001)     ;
(PID.TID 0000.0001) PTRACERS_diffK4 = /* Biharmonic Diffusivity */
(PID.TID 0000.0001)                 0.000000000000000E+00
(PID.TID 0000.0001)     ;
(PID.TID 0000.0001) PTRACERS_diffKrNr = /* Vertical Diffusivity */
(PID.TID 0000.0001)    35 @  1.000000000000000E-05              /* K =  1: 35 */
(PID.TID 0000.0001)     ;
(PID.TID 0000.0001) PTRACERS_useGMRedi = /* apply GM-Redi */
(PID.TID 0000.0001)                   F
(PID.TID 0000.0001)     ;
(PID.TID 0000.0001) PTRACERS_useDWNSLP = /* apply DOWN-SLOPE Flow */
(PID.TID 0000.0001)                   F
(PID.TID 0000.0001)     ;
(PID.TID 0000.0001) PTRACERS_useKPP = /* apply KPP scheme */
(PID.TID 0000.0001)                   F
(PID.TID 0000.0001)     ;
(PID.TID 0000.0001) PTRACERS_ref = /* Reference vertical profile */
(PID.TID 0000.0001)    35 @  0.000000000000000E+00              /* K =  1: 35 */
(PID.TID 0000.0001)     ;
(PID.TID 0000.0001) PTRACERS_EvPrRn =/* tracer conc. in Evap. & Rain */
(PID.TID 0000.0001)                 1.234567000000000E+05
(PID.TID 0000.0001)     ;
(PID.TID 0000.0001)  -----------------------------------
(PID.TID 0000.0001)  tracer number :   87
(PID.TID 0000.0001) PTRACERS_names = /* Tracer short name */
(PID.TID 0000.0001)               'c69'
(PID.TID 0000.0001)     ;
(PID.TID 0000.0001) PTRACERS_long_names = /* Tracer long name */
(PID.TID 0000.0001)               ''
(PID.TID 0000.0001)     ;
(PID.TID 0000.0001) PTRACERS_ioLabel = /* tracer IO Label */
(PID.TID 0000.0001)               '87'
(PID.TID 0000.0001)     ;
(PID.TID 0000.0001) PTRACERS_advScheme = /* Advection Scheme */
(PID.TID 0000.0001)                      33
(PID.TID 0000.0001)     ;
(PID.TID 0000.0001) PTRACERS_SOM_Advection = /* tracer uses SOM advection scheme */
(PID.TID 0000.0001)                   F
(PID.TID 0000.0001)     ;
(PID.TID 0000.0001) PTRACERS_ImplVertAdv = /* implicit vert. advection flag */
(PID.TID 0000.0001)                   F
(PID.TID 0000.0001)     ;
(PID.TID 0000.0001) PTRACERS_MultiDimAdv = /* tracer uses Multi-Dim advection */
(PID.TID 0000.0001)                   T
(PID.TID 0000.0001)     ;
(PID.TID 0000.0001) PTRACERS_AdamsBashGtr = /* apply AB on tracer tendency */
(PID.TID 0000.0001)                   F
(PID.TID 0000.0001)     ;
(PID.TID 0000.0001) PTRACERS_AdamsBash_Tr = /* apply AB on passive tracer */
(PID.TID 0000.0001)                   F
(PID.TID 0000.0001)     ;
(PID.TID 0000.0001) PTRACERS_diffKh = /* Laplacian Diffusivity */
(PID.TID 0000.0001)                 0.000000000000000E+00
(PID.TID 0000.0001)     ;
(PID.TID 0000.0001) PTRACERS_diffK4 = /* Biharmonic Diffusivity */
(PID.TID 0000.0001)                 0.000000000000000E+00
(PID.TID 0000.0001)     ;
(PID.TID 0000.0001) PTRACERS_diffKrNr = /* Vertical Diffusivity */
(PID.TID 0000.0001)    35 @  1.000000000000000E-05              /* K =  1: 35 */
(PID.TID 0000.0001)     ;
(PID.TID 0000.0001) PTRACERS_useGMRedi = /* apply GM-Redi */
(PID.TID 0000.0001)                   F
(PID.TID 0000.0001)     ;
(PID.TID 0000.0001) PTRACERS_useDWNSLP = /* apply DOWN-SLOPE Flow */
(PID.TID 0000.0001)                   F
(PID.TID 0000.0001)     ;
(PID.TID 0000.0001) PTRACERS_useKPP = /* apply KPP scheme */
(PID.TID 0000.0001)                   F
(PID.TID 0000.0001)     ;
(PID.TID 0000.0001) PTRACERS_ref = /* Reference vertical profile */
(PID.TID 0000.0001)    35 @  0.000000000000000E+00              /* K =  1: 35 */
(PID.TID 0000.0001)     ;
(PID.TID 0000.0001) PTRACERS_EvPrRn =/* tracer conc. in Evap. & Rain */
(PID.TID 0000.0001)                 1.234567000000000E+05
(PID.TID 0000.0001)     ;
(PID.TID 0000.0001)  -----------------------------------
(PID.TID 0000.0001)  tracer number :   88
(PID.TID 0000.0001) PTRACERS_names = /* Tracer short name */
(PID.TID 0000.0001)               'c70'
(PID.TID 0000.0001)     ;
(PID.TID 0000.0001) PTRACERS_long_names = /* Tracer long name */
(PID.TID 0000.0001)               ''
(PID.TID 0000.0001)     ;
(PID.TID 0000.0001) PTRACERS_ioLabel = /* tracer IO Label */
(PID.TID 0000.0001)               '88'
(PID.TID 0000.0001)     ;
(PID.TID 0000.0001) PTRACERS_advScheme = /* Advection Scheme */
(PID.TID 0000.0001)                      33
(PID.TID 0000.0001)     ;
(PID.TID 0000.0001) PTRACERS_SOM_Advection = /* tracer uses SOM advection scheme */
(PID.TID 0000.0001)                   F
(PID.TID 0000.0001)     ;
(PID.TID 0000.0001) PTRACERS_ImplVertAdv = /* implicit vert. advection flag */
(PID.TID 0000.0001)                   F
(PID.TID 0000.0001)     ;
(PID.TID 0000.0001) PTRACERS_MultiDimAdv = /* tracer uses Multi-Dim advection */
(PID.TID 0000.0001)                   T
(PID.TID 0000.0001)     ;
(PID.TID 0000.0001) PTRACERS_AdamsBashGtr = /* apply AB on tracer tendency */
(PID.TID 0000.0001)                   F
(PID.TID 0000.0001)     ;
(PID.TID 0000.0001) PTRACERS_AdamsBash_Tr = /* apply AB on passive tracer */
(PID.TID 0000.0001)                   F
(PID.TID 0000.0001)     ;
(PID.TID 0000.0001) PTRACERS_diffKh = /* Laplacian Diffusivity */
(PID.TID 0000.0001)                 0.000000000000000E+00
(PID.TID 0000.0001)     ;
(PID.TID 0000.0001) PTRACERS_diffK4 = /* Biharmonic Diffusivity */
(PID.TID 0000.0001)                 0.000000000000000E+00
(PID.TID 0000.0001)     ;
(PID.TID 0000.0001) PTRACERS_diffKrNr = /* Vertical Diffusivity */
(PID.TID 0000.0001)    35 @  1.000000000000000E-05              /* K =  1: 35 */
(PID.TID 0000.0001)     ;
(PID.TID 0000.0001) PTRACERS_useGMRedi = /* apply GM-Redi */
(PID.TID 0000.0001)                   F
(PID.TID 0000.0001)     ;
(PID.TID 0000.0001) PTRACERS_useDWNSLP = /* apply DOWN-SLOPE Flow */
(PID.TID 0000.0001)                   F
(PID.TID 0000.0001)     ;
(PID.TID 0000.0001) PTRACERS_useKPP = /* apply KPP scheme */
(PID.TID 0000.0001)                   F
(PID.TID 0000.0001)     ;
(PID.TID 0000.0001) PTRACERS_ref = /* Reference vertical profile */
(PID.TID 0000.0001)    35 @  0.000000000000000E+00              /* K =  1: 35 */
(PID.TID 0000.0001)     ;
(PID.TID 0000.0001) PTRACERS_EvPrRn =/* tracer conc. in Evap. & Rain */
(PID.TID 0000.0001)                 1.234567000000000E+05
(PID.TID 0000.0001)     ;
(PID.TID 0000.0001)  -----------------------------------
(PID.TID 0000.0001)  tracer number :   89
(PID.TID 0000.0001) PTRACERS_names = /* Tracer short name */
(PID.TID 0000.0001)               'c71'
(PID.TID 0000.0001)     ;
(PID.TID 0000.0001) PTRACERS_long_names = /* Tracer long name */
(PID.TID 0000.0001)               ''
(PID.TID 0000.0001)     ;
(PID.TID 0000.0001) PTRACERS_ioLabel = /* tracer IO Label */
(PID.TID 0000.0001)               '89'
(PID.TID 0000.0001)     ;
(PID.TID 0000.0001) PTRACERS_advScheme = /* Advection Scheme */
(PID.TID 0000.0001)                      33
(PID.TID 0000.0001)     ;
(PID.TID 0000.0001) PTRACERS_SOM_Advection = /* tracer uses SOM advection scheme */
(PID.TID 0000.0001)                   F
(PID.TID 0000.0001)     ;
(PID.TID 0000.0001) PTRACERS_ImplVertAdv = /* implicit vert. advection flag */
(PID.TID 0000.0001)                   F
(PID.TID 0000.0001)     ;
(PID.TID 0000.0001) PTRACERS_MultiDimAdv = /* tracer uses Multi-Dim advection */
(PID.TID 0000.0001)                   T
(PID.TID 0000.0001)     ;
(PID.TID 0000.0001) PTRACERS_AdamsBashGtr = /* apply AB on tracer tendency */
(PID.TID 0000.0001)                   F
(PID.TID 0000.0001)     ;
(PID.TID 0000.0001) PTRACERS_AdamsBash_Tr = /* apply AB on passive tracer */
(PID.TID 0000.0001)                   F
(PID.TID 0000.0001)     ;
(PID.TID 0000.0001) PTRACERS_diffKh = /* Laplacian Diffusivity */
(PID.TID 0000.0001)                 0.000000000000000E+00
(PID.TID 0000.0001)     ;
(PID.TID 0000.0001) PTRACERS_diffK4 = /* Biharmonic Diffusivity */
(PID.TID 0000.0001)                 0.000000000000000E+00
(PID.TID 0000.0001)     ;
(PID.TID 0000.0001) PTRACERS_diffKrNr = /* Vertical Diffusivity */
(PID.TID 0000.0001)    35 @  1.000000000000000E-05              /* K =  1: 35 */
(PID.TID 0000.0001)     ;
(PID.TID 0000.0001) PTRACERS_useGMRedi = /* apply GM-Redi */
(PID.TID 0000.0001)                   F
(PID.TID 0000.0001)     ;
(PID.TID 0000.0001) PTRACERS_useDWNSLP = /* apply DOWN-SLOPE Flow */
(PID.TID 0000.0001)                   F
(PID.TID 0000.0001)     ;
(PID.TID 0000.0001) PTRACERS_useKPP = /* apply KPP scheme */
(PID.TID 0000.0001)                   F
(PID.TID 0000.0001)     ;
(PID.TID 0000.0001) PTRACERS_ref = /* Reference vertical profile */
(PID.TID 0000.0001)    35 @  0.000000000000000E+00              /* K =  1: 35 */
(PID.TID 0000.0001)     ;
(PID.TID 0000.0001) PTRACERS_EvPrRn =/* tracer conc. in Evap. & Rain */
(PID.TID 0000.0001)                 1.234567000000000E+05
(PID.TID 0000.0001)     ;
(PID.TID 0000.0001)  -----------------------------------
(PID.TID 0000.0001)  tracer number :   90
(PID.TID 0000.0001) PTRACERS_names = /* Tracer short name */
(PID.TID 0000.0001)               'c72'
(PID.TID 0000.0001)     ;
(PID.TID 0000.0001) PTRACERS_long_names = /* Tracer long name */
(PID.TID 0000.0001)               ''
(PID.TID 0000.0001)     ;
(PID.TID 0000.0001) PTRACERS_ioLabel = /* tracer IO Label */
(PID.TID 0000.0001)               '90'
(PID.TID 0000.0001)     ;
(PID.TID 0000.0001) PTRACERS_advScheme = /* Advection Scheme */
(PID.TID 0000.0001)                      33
(PID.TID 0000.0001)     ;
(PID.TID 0000.0001) PTRACERS_SOM_Advection = /* tracer uses SOM advection scheme */
(PID.TID 0000.0001)                   F
(PID.TID 0000.0001)     ;
(PID.TID 0000.0001) PTRACERS_ImplVertAdv = /* implicit vert. advection flag */
(PID.TID 0000.0001)                   F
(PID.TID 0000.0001)     ;
(PID.TID 0000.0001) PTRACERS_MultiDimAdv = /* tracer uses Multi-Dim advection */
(PID.TID 0000.0001)                   T
(PID.TID 0000.0001)     ;
(PID.TID 0000.0001) PTRACERS_AdamsBashGtr = /* apply AB on tracer tendency */
(PID.TID 0000.0001)                   F
(PID.TID 0000.0001)     ;
(PID.TID 0000.0001) PTRACERS_AdamsBash_Tr = /* apply AB on passive tracer */
(PID.TID 0000.0001)                   F
(PID.TID 0000.0001)     ;
(PID.TID 0000.0001) PTRACERS_diffKh = /* Laplacian Diffusivity */
(PID.TID 0000.0001)                 0.000000000000000E+00
(PID.TID 0000.0001)     ;
(PID.TID 0000.0001) PTRACERS_diffK4 = /* Biharmonic Diffusivity */
(PID.TID 0000.0001)                 0.000000000000000E+00
(PID.TID 0000.0001)     ;
(PID.TID 0000.0001) PTRACERS_diffKrNr = /* Vertical Diffusivity */
(PID.TID 0000.0001)    35 @  1.000000000000000E-05              /* K =  1: 35 */
(PID.TID 0000.0001)     ;
(PID.TID 0000.0001) PTRACERS_useGMRedi = /* apply GM-Redi */
(PID.TID 0000.0001)                   F
(PID.TID 0000.0001)     ;
(PID.TID 0000.0001) PTRACERS_useDWNSLP = /* apply DOWN-SLOPE Flow */
(PID.TID 0000.0001)                   F
(PID.TID 0000.0001)     ;
(PID.TID 0000.0001) PTRACERS_useKPP = /* apply KPP scheme */
(PID.TID 0000.0001)                   F
(PID.TID 0000.0001)     ;
(PID.TID 0000.0001) PTRACERS_ref = /* Reference vertical profile */
(PID.TID 0000.0001)    35 @  0.000000000000000E+00              /* K =  1: 35 */
(PID.TID 0000.0001)     ;
(PID.TID 0000.0001) PTRACERS_EvPrRn =/* tracer conc. in Evap. & Rain */
(PID.TID 0000.0001)                 1.234567000000000E+05
(PID.TID 0000.0001)     ;
(PID.TID 0000.0001)  -----------------------------------
(PID.TID 0000.0001)  tracer number :   91
(PID.TID 0000.0001) PTRACERS_names = /* Tracer short name */
(PID.TID 0000.0001)               'c73'
(PID.TID 0000.0001)     ;
(PID.TID 0000.0001) PTRACERS_long_names = /* Tracer long name */
(PID.TID 0000.0001)               ''
(PID.TID 0000.0001)     ;
(PID.TID 0000.0001) PTRACERS_ioLabel = /* tracer IO Label */
(PID.TID 0000.0001)               '91'
(PID.TID 0000.0001)     ;
(PID.TID 0000.0001) PTRACERS_advScheme = /* Advection Scheme */
(PID.TID 0000.0001)                      33
(PID.TID 0000.0001)     ;
(PID.TID 0000.0001) PTRACERS_SOM_Advection = /* tracer uses SOM advection scheme */
(PID.TID 0000.0001)                   F
(PID.TID 0000.0001)     ;
(PID.TID 0000.0001) PTRACERS_ImplVertAdv = /* implicit vert. advection flag */
(PID.TID 0000.0001)                   F
(PID.TID 0000.0001)     ;
(PID.TID 0000.0001) PTRACERS_MultiDimAdv = /* tracer uses Multi-Dim advection */
(PID.TID 0000.0001)                   T
(PID.TID 0000.0001)     ;
(PID.TID 0000.0001) PTRACERS_AdamsBashGtr = /* apply AB on tracer tendency */
(PID.TID 0000.0001)                   F
(PID.TID 0000.0001)     ;
(PID.TID 0000.0001) PTRACERS_AdamsBash_Tr = /* apply AB on passive tracer */
(PID.TID 0000.0001)                   F
(PID.TID 0000.0001)     ;
(PID.TID 0000.0001) PTRACERS_diffKh = /* Laplacian Diffusivity */
(PID.TID 0000.0001)                 0.000000000000000E+00
(PID.TID 0000.0001)     ;
(PID.TID 0000.0001) PTRACERS_diffK4 = /* Biharmonic Diffusivity */
(PID.TID 0000.0001)                 0.000000000000000E+00
(PID.TID 0000.0001)     ;
(PID.TID 0000.0001) PTRACERS_diffKrNr = /* Vertical Diffusivity */
(PID.TID 0000.0001)    35 @  1.000000000000000E-05              /* K =  1: 35 */
(PID.TID 0000.0001)     ;
(PID.TID 0000.0001) PTRACERS_useGMRedi = /* apply GM-Redi */
(PID.TID 0000.0001)                   F
(PID.TID 0000.0001)     ;
(PID.TID 0000.0001) PTRACERS_useDWNSLP = /* apply DOWN-SLOPE Flow */
(PID.TID 0000.0001)                   F
(PID.TID 0000.0001)     ;
(PID.TID 0000.0001) PTRACERS_useKPP = /* apply KPP scheme */
(PID.TID 0000.0001)                   F
(PID.TID 0000.0001)     ;
(PID.TID 0000.0001) PTRACERS_ref = /* Reference vertical profile */
(PID.TID 0000.0001)    35 @  0.000000000000000E+00              /* K =  1: 35 */
(PID.TID 0000.0001)     ;
(PID.TID 0000.0001) PTRACERS_EvPrRn =/* tracer conc. in Evap. & Rain */
(PID.TID 0000.0001)                 1.234567000000000E+05
(PID.TID 0000.0001)     ;
(PID.TID 0000.0001)  -----------------------------------
(PID.TID 0000.0001)  tracer number :   92
(PID.TID 0000.0001) PTRACERS_names = /* Tracer short name */
(PID.TID 0000.0001)               'c74'
(PID.TID 0000.0001)     ;
(PID.TID 0000.0001) PTRACERS_long_names = /* Tracer long name */
(PID.TID 0000.0001)               ''
(PID.TID 0000.0001)     ;
(PID.TID 0000.0001) PTRACERS_ioLabel = /* tracer IO Label */
(PID.TID 0000.0001)               '92'
(PID.TID 0000.0001)     ;
(PID.TID 0000.0001) PTRACERS_advScheme = /* Advection Scheme */
(PID.TID 0000.0001)                      33
(PID.TID 0000.0001)     ;
(PID.TID 0000.0001) PTRACERS_SOM_Advection = /* tracer uses SOM advection scheme */
(PID.TID 0000.0001)                   F
(PID.TID 0000.0001)     ;
(PID.TID 0000.0001) PTRACERS_ImplVertAdv = /* implicit vert. advection flag */
(PID.TID 0000.0001)                   F
(PID.TID 0000.0001)     ;
(PID.TID 0000.0001) PTRACERS_MultiDimAdv = /* tracer uses Multi-Dim advection */
(PID.TID 0000.0001)                   T
(PID.TID 0000.0001)     ;
(PID.TID 0000.0001) PTRACERS_AdamsBashGtr = /* apply AB on tracer tendency */
(PID.TID 0000.0001)                   F
(PID.TID 0000.0001)     ;
(PID.TID 0000.0001) PTRACERS_AdamsBash_Tr = /* apply AB on passive tracer */
(PID.TID 0000.0001)                   F
(PID.TID 0000.0001)     ;
(PID.TID 0000.0001) PTRACERS_diffKh = /* Laplacian Diffusivity */
(PID.TID 0000.0001)                 0.000000000000000E+00
(PID.TID 0000.0001)     ;
(PID.TID 0000.0001) PTRACERS_diffK4 = /* Biharmonic Diffusivity */
(PID.TID 0000.0001)                 0.000000000000000E+00
(PID.TID 0000.0001)     ;
(PID.TID 0000.0001) PTRACERS_diffKrNr = /* Vertical Diffusivity */
(PID.TID 0000.0001)    35 @  1.000000000000000E-05              /* K =  1: 35 */
(PID.TID 0000.0001)     ;
(PID.TID 0000.0001) PTRACERS_useGMRedi = /* apply GM-Redi */
(PID.TID 0000.0001)                   F
(PID.TID 0000.0001)     ;
(PID.TID 0000.0001) PTRACERS_useDWNSLP = /* apply DOWN-SLOPE Flow */
(PID.TID 0000.0001)                   F
(PID.TID 0000.0001)     ;
(PID.TID 0000.0001) PTRACERS_useKPP = /* apply KPP scheme */
(PID.TID 0000.0001)                   F
(PID.TID 0000.0001)     ;
(PID.TID 0000.0001) PTRACERS_ref = /* Reference vertical profile */
(PID.TID 0000.0001)    35 @  0.000000000000000E+00              /* K =  1: 35 */
(PID.TID 0000.0001)     ;
(PID.TID 0000.0001) PTRACERS_EvPrRn =/* tracer conc. in Evap. & Rain */
(PID.TID 0000.0001)                 1.234567000000000E+05
(PID.TID 0000.0001)     ;
(PID.TID 0000.0001)  -----------------------------------
(PID.TID 0000.0001)  tracer number :   93
(PID.TID 0000.0001) PTRACERS_names = /* Tracer short name */
(PID.TID 0000.0001)               'c75'
(PID.TID 0000.0001)     ;
(PID.TID 0000.0001) PTRACERS_long_names = /* Tracer long name */
(PID.TID 0000.0001)               ''
(PID.TID 0000.0001)     ;
(PID.TID 0000.0001) PTRACERS_ioLabel = /* tracer IO Label */
(PID.TID 0000.0001)               '93'
(PID.TID 0000.0001)     ;
(PID.TID 0000.0001) PTRACERS_advScheme = /* Advection Scheme */
(PID.TID 0000.0001)                      33
(PID.TID 0000.0001)     ;
(PID.TID 0000.0001) PTRACERS_SOM_Advection = /* tracer uses SOM advection scheme */
(PID.TID 0000.0001)                   F
(PID.TID 0000.0001)     ;
(PID.TID 0000.0001) PTRACERS_ImplVertAdv = /* implicit vert. advection flag */
(PID.TID 0000.0001)                   F
(PID.TID 0000.0001)     ;
(PID.TID 0000.0001) PTRACERS_MultiDimAdv = /* tracer uses Multi-Dim advection */
(PID.TID 0000.0001)                   T
(PID.TID 0000.0001)     ;
(PID.TID 0000.0001) PTRACERS_AdamsBashGtr = /* apply AB on tracer tendency */
(PID.TID 0000.0001)                   F
(PID.TID 0000.0001)     ;
(PID.TID 0000.0001) PTRACERS_AdamsBash_Tr = /* apply AB on passive tracer */
(PID.TID 0000.0001)                   F
(PID.TID 0000.0001)     ;
(PID.TID 0000.0001) PTRACERS_diffKh = /* Laplacian Diffusivity */
(PID.TID 0000.0001)                 0.000000000000000E+00
(PID.TID 0000.0001)     ;
(PID.TID 0000.0001) PTRACERS_diffK4 = /* Biharmonic Diffusivity */
(PID.TID 0000.0001)                 0.000000000000000E+00
(PID.TID 0000.0001)     ;
(PID.TID 0000.0001) PTRACERS_diffKrNr = /* Vertical Diffusivity */
(PID.TID 0000.0001)    35 @  1.000000000000000E-05              /* K =  1: 35 */
(PID.TID 0000.0001)     ;
(PID.TID 0000.0001) PTRACERS_useGMRedi = /* apply GM-Redi */
(PID.TID 0000.0001)                   F
(PID.TID 0000.0001)     ;
(PID.TID 0000.0001) PTRACERS_useDWNSLP = /* apply DOWN-SLOPE Flow */
(PID.TID 0000.0001)                   F
(PID.TID 0000.0001)     ;
(PID.TID 0000.0001) PTRACERS_useKPP = /* apply KPP scheme */
(PID.TID 0000.0001)                   F
(PID.TID 0000.0001)     ;
(PID.TID 0000.0001) PTRACERS_ref = /* Reference vertical profile */
(PID.TID 0000.0001)    35 @  0.000000000000000E+00              /* K =  1: 35 */
(PID.TID 0000.0001)     ;
(PID.TID 0000.0001) PTRACERS_EvPrRn =/* tracer conc. in Evap. & Rain */
(PID.TID 0000.0001)                 1.234567000000000E+05
(PID.TID 0000.0001)     ;
(PID.TID 0000.0001)  -----------------------------------
(PID.TID 0000.0001)  tracer number :   94
(PID.TID 0000.0001) PTRACERS_names = /* Tracer short name */
(PID.TID 0000.0001)               'c76'
(PID.TID 0000.0001)     ;
(PID.TID 0000.0001) PTRACERS_long_names = /* Tracer long name */
(PID.TID 0000.0001)               ''
(PID.TID 0000.0001)     ;
(PID.TID 0000.0001) PTRACERS_ioLabel = /* tracer IO Label */
(PID.TID 0000.0001)               '94'
(PID.TID 0000.0001)     ;
(PID.TID 0000.0001) PTRACERS_advScheme = /* Advection Scheme */
(PID.TID 0000.0001)                      33
(PID.TID 0000.0001)     ;
(PID.TID 0000.0001) PTRACERS_SOM_Advection = /* tracer uses SOM advection scheme */
(PID.TID 0000.0001)                   F
(PID.TID 0000.0001)     ;
(PID.TID 0000.0001) PTRACERS_ImplVertAdv = /* implicit vert. advection flag */
(PID.TID 0000.0001)                   F
(PID.TID 0000.0001)     ;
(PID.TID 0000.0001) PTRACERS_MultiDimAdv = /* tracer uses Multi-Dim advection */
(PID.TID 0000.0001)                   T
(PID.TID 0000.0001)     ;
(PID.TID 0000.0001) PTRACERS_AdamsBashGtr = /* apply AB on tracer tendency */
(PID.TID 0000.0001)                   F
(PID.TID 0000.0001)     ;
(PID.TID 0000.0001) PTRACERS_AdamsBash_Tr = /* apply AB on passive tracer */
(PID.TID 0000.0001)                   F
(PID.TID 0000.0001)     ;
(PID.TID 0000.0001) PTRACERS_diffKh = /* Laplacian Diffusivity */
(PID.TID 0000.0001)                 0.000000000000000E+00
(PID.TID 0000.0001)     ;
(PID.TID 0000.0001) PTRACERS_diffK4 = /* Biharmonic Diffusivity */
(PID.TID 0000.0001)                 0.000000000000000E+00
(PID.TID 0000.0001)     ;
(PID.TID 0000.0001) PTRACERS_diffKrNr = /* Vertical Diffusivity */
(PID.TID 0000.0001)    35 @  1.000000000000000E-05              /* K =  1: 35 */
(PID.TID 0000.0001)     ;
(PID.TID 0000.0001) PTRACERS_useGMRedi = /* apply GM-Redi */
(PID.TID 0000.0001)                   F
(PID.TID 0000.0001)     ;
(PID.TID 0000.0001) PTRACERS_useDWNSLP = /* apply DOWN-SLOPE Flow */
(PID.TID 0000.0001)                   F
(PID.TID 0000.0001)     ;
(PID.TID 0000.0001) PTRACERS_useKPP = /* apply KPP scheme */
(PID.TID 0000.0001)                   F
(PID.TID 0000.0001)     ;
(PID.TID 0000.0001) PTRACERS_ref = /* Reference vertical profile */
(PID.TID 0000.0001)    35 @  0.000000000000000E+00              /* K =  1: 35 */
(PID.TID 0000.0001)     ;
(PID.TID 0000.0001) PTRACERS_EvPrRn =/* tracer conc. in Evap. & Rain */
(PID.TID 0000.0001)                 1.234567000000000E+05
(PID.TID 0000.0001)     ;
(PID.TID 0000.0001)  -----------------------------------
(PID.TID 0000.0001)  tracer number :   95
(PID.TID 0000.0001) PTRACERS_names = /* Tracer short name */
(PID.TID 0000.0001)               'c77'
(PID.TID 0000.0001)     ;
(PID.TID 0000.0001) PTRACERS_long_names = /* Tracer long name */
(PID.TID 0000.0001)               ''
(PID.TID 0000.0001)     ;
(PID.TID 0000.0001) PTRACERS_ioLabel = /* tracer IO Label */
(PID.TID 0000.0001)               '95'
(PID.TID 0000.0001)     ;
(PID.TID 0000.0001) PTRACERS_advScheme = /* Advection Scheme */
(PID.TID 0000.0001)                      33
(PID.TID 0000.0001)     ;
(PID.TID 0000.0001) PTRACERS_SOM_Advection = /* tracer uses SOM advection scheme */
(PID.TID 0000.0001)                   F
(PID.TID 0000.0001)     ;
(PID.TID 0000.0001) PTRACERS_ImplVertAdv = /* implicit vert. advection flag */
(PID.TID 0000.0001)                   F
(PID.TID 0000.0001)     ;
(PID.TID 0000.0001) PTRACERS_MultiDimAdv = /* tracer uses Multi-Dim advection */
(PID.TID 0000.0001)                   T
(PID.TID 0000.0001)     ;
(PID.TID 0000.0001) PTRACERS_AdamsBashGtr = /* apply AB on tracer tendency */
(PID.TID 0000.0001)                   F
(PID.TID 0000.0001)     ;
(PID.TID 0000.0001) PTRACERS_AdamsBash_Tr = /* apply AB on passive tracer */
(PID.TID 0000.0001)                   F
(PID.TID 0000.0001)     ;
(PID.TID 0000.0001) PTRACERS_diffKh = /* Laplacian Diffusivity */
(PID.TID 0000.0001)                 0.000000000000000E+00
(PID.TID 0000.0001)     ;
(PID.TID 0000.0001) PTRACERS_diffK4 = /* Biharmonic Diffusivity */
(PID.TID 0000.0001)                 0.000000000000000E+00
(PID.TID 0000.0001)     ;
(PID.TID 0000.0001) PTRACERS_diffKrNr = /* Vertical Diffusivity */
(PID.TID 0000.0001)    35 @  1.000000000000000E-05              /* K =  1: 35 */
(PID.TID 0000.0001)     ;
(PID.TID 0000.0001) PTRACERS_useGMRedi = /* apply GM-Redi */
(PID.TID 0000.0001)                   F
(PID.TID 0000.0001)     ;
(PID.TID 0000.0001) PTRACERS_useDWNSLP = /* apply DOWN-SLOPE Flow */
(PID.TID 0000.0001)                   F
(PID.TID 0000.0001)     ;
(PID.TID 0000.0001) PTRACERS_useKPP = /* apply KPP scheme */
(PID.TID 0000.0001)                   F
(PID.TID 0000.0001)     ;
(PID.TID 0000.0001) PTRACERS_ref = /* Reference vertical profile */
(PID.TID 0000.0001)    35 @  0.000000000000000E+00              /* K =  1: 35 */
(PID.TID 0000.0001)     ;
(PID.TID 0000.0001) PTRACERS_EvPrRn =/* tracer conc. in Evap. & Rain */
(PID.TID 0000.0001)                 1.234567000000000E+05
(PID.TID 0000.0001)     ;
(PID.TID 0000.0001)  -----------------------------------
(PID.TID 0000.0001)  tracer number :   96
(PID.TID 0000.0001) PTRACERS_names = /* Tracer short name */
(PID.TID 0000.0001)               'c78'
(PID.TID 0000.0001)     ;
(PID.TID 0000.0001) PTRACERS_long_names = /* Tracer long name */
(PID.TID 0000.0001)               ''
(PID.TID 0000.0001)     ;
(PID.TID 0000.0001) PTRACERS_ioLabel = /* tracer IO Label */
(PID.TID 0000.0001)               '96'
(PID.TID 0000.0001)     ;
(PID.TID 0000.0001) PTRACERS_advScheme = /* Advection Scheme */
(PID.TID 0000.0001)                      33
(PID.TID 0000.0001)     ;
(PID.TID 0000.0001) PTRACERS_SOM_Advection = /* tracer uses SOM advection scheme */
(PID.TID 0000.0001)                   F
(PID.TID 0000.0001)     ;
(PID.TID 0000.0001) PTRACERS_ImplVertAdv = /* implicit vert. advection flag */
(PID.TID 0000.0001)                   F
(PID.TID 0000.0001)     ;
(PID.TID 0000.0001) PTRACERS_MultiDimAdv = /* tracer uses Multi-Dim advection */
(PID.TID 0000.0001)                   T
(PID.TID 0000.0001)     ;
(PID.TID 0000.0001) PTRACERS_AdamsBashGtr = /* apply AB on tracer tendency */
(PID.TID 0000.0001)                   F
(PID.TID 0000.0001)     ;
(PID.TID 0000.0001) PTRACERS_AdamsBash_Tr = /* apply AB on passive tracer */
(PID.TID 0000.0001)                   F
(PID.TID 0000.0001)     ;
(PID.TID 0000.0001) PTRACERS_diffKh = /* Laplacian Diffusivity */
(PID.TID 0000.0001)                 0.000000000000000E+00
(PID.TID 0000.0001)     ;
(PID.TID 0000.0001) PTRACERS_diffK4 = /* Biharmonic Diffusivity */
(PID.TID 0000.0001)                 0.000000000000000E+00
(PID.TID 0000.0001)     ;
(PID.TID 0000.0001) PTRACERS_diffKrNr = /* Vertical Diffusivity */
(PID.TID 0000.0001)    35 @  1.000000000000000E-05              /* K =  1: 35 */
(PID.TID 0000.0001)     ;
(PID.TID 0000.0001) PTRACERS_useGMRedi = /* apply GM-Redi */
(PID.TID 0000.0001)                   F
(PID.TID 0000.0001)     ;
(PID.TID 0000.0001) PTRACERS_useDWNSLP = /* apply DOWN-SLOPE Flow */
(PID.TID 0000.0001)                   F
(PID.TID 0000.0001)     ;
(PID.TID 0000.0001) PTRACERS_useKPP = /* apply KPP scheme */
(PID.TID 0000.0001)                   F
(PID.TID 0000.0001)     ;
(PID.TID 0000.0001) PTRACERS_ref = /* Reference vertical profile */
(PID.TID 0000.0001)    35 @  0.000000000000000E+00              /* K =  1: 35 */
(PID.TID 0000.0001)     ;
(PID.TID 0000.0001) PTRACERS_EvPrRn =/* tracer conc. in Evap. & Rain */
(PID.TID 0000.0001)                 1.234567000000000E+05
(PID.TID 0000.0001)     ;
(PID.TID 0000.0001)  -----------------------------------
(PID.TID 0000.0001)  tracer number :   97
(PID.TID 0000.0001) PTRACERS_names = /* Tracer short name */
(PID.TID 0000.0001)               'zc1'
(PID.TID 0000.0001)     ;
(PID.TID 0000.0001) PTRACERS_long_names = /* Tracer long name */
(PID.TID 0000.0001)               ''
(PID.TID 0000.0001)     ;
(PID.TID 0000.0001) PTRACERS_ioLabel = /* tracer IO Label */
(PID.TID 0000.0001)               '97'
(PID.TID 0000.0001)     ;
(PID.TID 0000.0001) PTRACERS_advScheme = /* Advection Scheme */
(PID.TID 0000.0001)                      33
(PID.TID 0000.0001)     ;
(PID.TID 0000.0001) PTRACERS_SOM_Advection = /* tracer uses SOM advection scheme */
(PID.TID 0000.0001)                   F
(PID.TID 0000.0001)     ;
(PID.TID 0000.0001) PTRACERS_ImplVertAdv = /* implicit vert. advection flag */
(PID.TID 0000.0001)                   F
(PID.TID 0000.0001)     ;
(PID.TID 0000.0001) PTRACERS_MultiDimAdv = /* tracer uses Multi-Dim advection */
(PID.TID 0000.0001)                   T
(PID.TID 0000.0001)     ;
(PID.TID 0000.0001) PTRACERS_AdamsBashGtr = /* apply AB on tracer tendency */
(PID.TID 0000.0001)                   F
(PID.TID 0000.0001)     ;
(PID.TID 0000.0001) PTRACERS_AdamsBash_Tr = /* apply AB on passive tracer */
(PID.TID 0000.0001)                   F
(PID.TID 0000.0001)     ;
(PID.TID 0000.0001) PTRACERS_diffKh = /* Laplacian Diffusivity */
(PID.TID 0000.0001)                 0.000000000000000E+00
(PID.TID 0000.0001)     ;
(PID.TID 0000.0001) PTRACERS_diffK4 = /* Biharmonic Diffusivity */
(PID.TID 0000.0001)                 0.000000000000000E+00
(PID.TID 0000.0001)     ;
(PID.TID 0000.0001) PTRACERS_diffKrNr = /* Vertical Diffusivity */
(PID.TID 0000.0001)    35 @  1.000000000000000E-05              /* K =  1: 35 */
(PID.TID 0000.0001)     ;
(PID.TID 0000.0001) PTRACERS_useGMRedi = /* apply GM-Redi */
(PID.TID 0000.0001)                   F
(PID.TID 0000.0001)     ;
(PID.TID 0000.0001) PTRACERS_useDWNSLP = /* apply DOWN-SLOPE Flow */
(PID.TID 0000.0001)                   F
(PID.TID 0000.0001)     ;
(PID.TID 0000.0001) PTRACERS_useKPP = /* apply KPP scheme */
(PID.TID 0000.0001)                   F
(PID.TID 0000.0001)     ;
(PID.TID 0000.0001) PTRACERS_ref = /* Reference vertical profile */
(PID.TID 0000.0001)    35 @  0.000000000000000E+00              /* K =  1: 35 */
(PID.TID 0000.0001)     ;
(PID.TID 0000.0001) PTRACERS_EvPrRn =/* tracer conc. in Evap. & Rain */
(PID.TID 0000.0001)                 1.234567000000000E+05
(PID.TID 0000.0001)     ;
(PID.TID 0000.0001)  -----------------------------------
(PID.TID 0000.0001)  tracer number :   98
(PID.TID 0000.0001) PTRACERS_names = /* Tracer short name */
(PID.TID 0000.0001)               'zc2'
(PID.TID 0000.0001)     ;
(PID.TID 0000.0001) PTRACERS_long_names = /* Tracer long name */
(PID.TID 0000.0001)               ''
(PID.TID 0000.0001)     ;
(PID.TID 0000.0001) PTRACERS_ioLabel = /* tracer IO Label */
(PID.TID 0000.0001)               '98'
(PID.TID 0000.0001)     ;
(PID.TID 0000.0001) PTRACERS_advScheme = /* Advection Scheme */
(PID.TID 0000.0001)                      33
(PID.TID 0000.0001)     ;
(PID.TID 0000.0001) PTRACERS_SOM_Advection = /* tracer uses SOM advection scheme */
(PID.TID 0000.0001)                   F
(PID.TID 0000.0001)     ;
(PID.TID 0000.0001) PTRACERS_ImplVertAdv = /* implicit vert. advection flag */
(PID.TID 0000.0001)                   F
(PID.TID 0000.0001)     ;
(PID.TID 0000.0001) PTRACERS_MultiDimAdv = /* tracer uses Multi-Dim advection */
(PID.TID 0000.0001)                   T
(PID.TID 0000.0001)     ;
(PID.TID 0000.0001) PTRACERS_AdamsBashGtr = /* apply AB on tracer tendency */
(PID.TID 0000.0001)                   F
(PID.TID 0000.0001)     ;
(PID.TID 0000.0001) PTRACERS_AdamsBash_Tr = /* apply AB on passive tracer */
(PID.TID 0000.0001)                   F
(PID.TID 0000.0001)     ;
(PID.TID 0000.0001) PTRACERS_diffKh = /* Laplacian Diffusivity */
(PID.TID 0000.0001)                 0.000000000000000E+00
(PID.TID 0000.0001)     ;
(PID.TID 0000.0001) PTRACERS_diffK4 = /* Biharmonic Diffusivity */
(PID.TID 0000.0001)                 0.000000000000000E+00
(PID.TID 0000.0001)     ;
(PID.TID 0000.0001) PTRACERS_diffKrNr = /* Vertical Diffusivity */
(PID.TID 0000.0001)    35 @  1.000000000000000E-05              /* K =  1: 35 */
(PID.TID 0000.0001)     ;
(PID.TID 0000.0001) PTRACERS_useGMRedi = /* apply GM-Redi */
(PID.TID 0000.0001)                   F
(PID.TID 0000.0001)     ;
(PID.TID 0000.0001) PTRACERS_useDWNSLP = /* apply DOWN-SLOPE Flow */
(PID.TID 0000.0001)                   F
(PID.TID 0000.0001)     ;
(PID.TID 0000.0001) PTRACERS_useKPP = /* apply KPP scheme */
(PID.TID 0000.0001)                   F
(PID.TID 0000.0001)     ;
(PID.TID 0000.0001) PTRACERS_ref = /* Reference vertical profile */
(PID.TID 0000.0001)    35 @  0.000000000000000E+00              /* K =  1: 35 */
(PID.TID 0000.0001)     ;
(PID.TID 0000.0001) PTRACERS_EvPrRn =/* tracer conc. in Evap. & Rain */
(PID.TID 0000.0001)                 1.234567000000000E+05
(PID.TID 0000.0001)     ;
(PID.TID 0000.0001)  -----------------------------------
(PID.TID 0000.0001) GCHEM_CHECK: #define ALLOW_GCHEM
(PID.TID 0000.0001) GUD_CHECK: #define ALLOW_GUD
(PID.TID 0000.0001) GUD_CHECK: iPtr gud       PTRACERS_names
(PID.TID 0000.0001) GUD_CHECK:    1 DIC       DIC
(PID.TID 0000.0001) GUD_CHECK:    2 NH4       NH4
(PID.TID 0000.0001) GUD_CHECK:    3 NO2       NO2
(PID.TID 0000.0001) GUD_CHECK:    4 NO3       NO3
(PID.TID 0000.0001) GUD_CHECK:    5 PO4       PO4
(PID.TID 0000.0001) GUD_CHECK:    6 SiO2      SiO2
(PID.TID 0000.0001) GUD_CHECK:    7 FeT       FeT
(PID.TID 0000.0001) GUD_CHECK:    8 DOC       DOC
(PID.TID 0000.0001) GUD_CHECK:    9 DON       DON
(PID.TID 0000.0001) GUD_CHECK:   10 DOP       DOP
(PID.TID 0000.0001) GUD_CHECK:   11 DOFe      DOFe
(PID.TID 0000.0001) GUD_CHECK:   12 POC       POC
(PID.TID 0000.0001) GUD_CHECK:   13 PON       PON
(PID.TID 0000.0001) GUD_CHECK:   14 POP       POP
(PID.TID 0000.0001) GUD_CHECK:   15 POSi      POSi
(PID.TID 0000.0001) GUD_CHECK:   16 POFe      POFe
(PID.TID 0000.0001) GUD_CHECK:   17 PIC       PIC
(PID.TID 0000.0001) GUD_CHECK:   18 CDOM    1 CDOM
(PID.TID 0000.0001) GUD_CHECK:   19 c       1 c01
(PID.TID 0000.0001) GUD_CHECK:   20 c       2 c02
(PID.TID 0000.0001) GUD_CHECK:   21 c       3 c03
(PID.TID 0000.0001) GUD_CHECK:   22 c       4 c04
(PID.TID 0000.0001) GUD_CHECK:   23 c       5 c05
(PID.TID 0000.0001) GUD_CHECK:   24 c       6 c06
(PID.TID 0000.0001) GUD_CHECK:   25 c       7 c07
(PID.TID 0000.0001) GUD_CHECK:   26 c       8 c08
(PID.TID 0000.0001) GUD_CHECK:   27 c       9 c09
(PID.TID 0000.0001) GUD_CHECK:   28 c      10 c10
(PID.TID 0000.0001) GUD_CHECK:   29 c      11 c11
(PID.TID 0000.0001) GUD_CHECK:   30 c      12 c12
(PID.TID 0000.0001) GUD_CHECK:   31 c      13 c13
(PID.TID 0000.0001) GUD_CHECK:   32 c      14 c14
(PID.TID 0000.0001) GUD_CHECK:   33 c      15 c15
(PID.TID 0000.0001) GUD_CHECK:   34 c      16 c16
(PID.TID 0000.0001) GUD_CHECK:   35 c      17 c17
(PID.TID 0000.0001) GUD_CHECK:   36 c      18 c18
(PID.TID 0000.0001) GUD_CHECK:   37 c      19 c19
(PID.TID 0000.0001) GUD_CHECK:   38 c      20 c20
(PID.TID 0000.0001) GUD_CHECK:   39 c      21 c21
(PID.TID 0000.0001) GUD_CHECK:   40 c      22 c22
(PID.TID 0000.0001) GUD_CHECK:   41 c      23 c23
(PID.TID 0000.0001) GUD_CHECK:   42 c      24 c24
(PID.TID 0000.0001) GUD_CHECK:   43 c      25 c25
(PID.TID 0000.0001) GUD_CHECK:   44 c      26 c26
(PID.TID 0000.0001) GUD_CHECK:   45 c      27 c27
(PID.TID 0000.0001) GUD_CHECK:   46 c      28 c28
(PID.TID 0000.0001) GUD_CHECK:   47 c      29 c29
(PID.TID 0000.0001) GUD_CHECK:   48 c      30 c30
(PID.TID 0000.0001) GUD_CHECK:   49 c      31 c31
(PID.TID 0000.0001) GUD_CHECK:   50 c      32 c32
(PID.TID 0000.0001) GUD_CHECK:   51 c      33 c33
(PID.TID 0000.0001) GUD_CHECK:   52 c      34 c34
(PID.TID 0000.0001) GUD_CHECK:   53 c      35 c35
(PID.TID 0000.0001) GUD_CHECK:   54 c      36 c36
(PID.TID 0000.0001) GUD_CHECK:   55 c      37 c37
(PID.TID 0000.0001) GUD_CHECK:   56 c      38 c38
(PID.TID 0000.0001) GUD_CHECK:   57 c      39 c39
(PID.TID 0000.0001) GUD_CHECK:   58 c      40 c40
(PID.TID 0000.0001) GUD_CHECK:   59 c      41 c41
(PID.TID 0000.0001) GUD_CHECK:   60 c      42 c42
(PID.TID 0000.0001) GUD_CHECK:   61 c      43 c43
(PID.TID 0000.0001) GUD_CHECK:   62 c      44 c44
(PID.TID 0000.0001) GUD_CHECK:   63 c      45 c45
(PID.TID 0000.0001) GUD_CHECK:   64 c      46 c46
(PID.TID 0000.0001) GUD_CHECK:   65 c      47 c47
(PID.TID 0000.0001) GUD_CHECK:   66 c      48 c48
(PID.TID 0000.0001) GUD_CHECK:   67 c      49 c49
(PID.TID 0000.0001) GUD_CHECK:   68 c      50 c50
(PID.TID 0000.0001) GUD_CHECK:   69 c      51 c51
(PID.TID 0000.0001) GUD_CHECK:   70 c      52 c52
(PID.TID 0000.0001) GUD_CHECK:   71 c      53 c53
(PID.TID 0000.0001) GUD_CHECK:   72 c      54 c54
(PID.TID 0000.0001) GUD_CHECK:   73 c      55 c55
(PID.TID 0000.0001) GUD_CHECK:   74 c      56 c56
(PID.TID 0000.0001) GUD_CHECK:   75 c      57 c57
(PID.TID 0000.0001) GUD_CHECK:   76 c      58 c58
(PID.TID 0000.0001) GUD_CHECK:   77 c      59 c59
(PID.TID 0000.0001) GUD_CHECK:   78 c      60 c60
(PID.TID 0000.0001) GUD_CHECK:   79 c      61 c61
(PID.TID 0000.0001) GUD_CHECK:   80 c      62 c62
(PID.TID 0000.0001) GUD_CHECK:   81 c      63 c63
(PID.TID 0000.0001) GUD_CHECK:   82 c      64 c64
(PID.TID 0000.0001) GUD_CHECK:   83 c      65 c65
(PID.TID 0000.0001) GUD_CHECK:   84 c      66 c66
(PID.TID 0000.0001) GUD_CHECK:   85 c      67 c67
(PID.TID 0000.0001) GUD_CHECK:   86 c      68 c68
(PID.TID 0000.0001) GUD_CHECK:   87 c      69 c69
(PID.TID 0000.0001) GUD_CHECK:   88 c      70 c70
(PID.TID 0000.0001) GUD_CHECK:   89 c      71 c71
(PID.TID 0000.0001) GUD_CHECK:   90 c      72 c72
(PID.TID 0000.0001) GUD_CHECK:   91 c      73 c73
(PID.TID 0000.0001) GUD_CHECK:   92 c      74 c74
(PID.TID 0000.0001) GUD_CHECK:   93 c      75 c75
(PID.TID 0000.0001) GUD_CHECK:   94 c      76 c76
(PID.TID 0000.0001) GUD_CHECK:   95 c      77 c77
(PID.TID 0000.0001) GUD_CHECK:   96 c      78 c78
(PID.TID 0000.0001) GUD_CHECK:   97 c      79 zc1
(PID.TID 0000.0001) GUD_CHECK:   98 c      80 zc2
(PID.TID 0000.0001) GAD_CHECK: #define ALLOW_GENERIC_ADVDIFF
(PID.TID 0000.0001) // =======================================================
(PID.TID 0000.0001) // Check Model config. (CONFIG_CHECK):
(PID.TID 0000.0001) // CONFIG_CHECK : Normal End
(PID.TID 0000.0001) // =======================================================
(PID.TID 0000.0001) 
(PID.TID 0000.0001)  MDS_READ_FIELD: opening global file: ../input/input/loc1_temp_janprof.bin
(PID.TID 0000.0001)  MDS_READ_FIELD: opening global file: ../input/input/salt_uniform.bin
(PID.TID 0000.0001) Start initial hydrostatic pressure computation
(PID.TID 0000.0001) Pressure is predetermined for buoyancyRelation OCEANIC
(PID.TID 0000.0001) 
(PID.TID 0000.0001)  MDS_READ_FIELD: opening global file: ../input/input/loc1_temp_monsurf.bin
(PID.TID 0000.0001)  write diagnostics summary to file ioUnit:      6
Iter.Nb:         0 ; Time(s):  0.0000000000000E+00
------------------------------------------------------------------------
2D/3D diagnostics: Number of lists:     1
------------------------------------------------------------------------
listId=    1 ; file name: gud
 nFlds, nActive,       freq     &     phase        , nLev               
   98  |   98  |      3600.000000         0.000000 |  35
 levels:   1   2   3   4   5   6   7   8   9  10  11  12  13  14  15  16  17  18  19  20  21  22  23  24  25
 levels:  26  27  28  29  30  31  32  33  34  35
 diag# | name   |   ipt  |  iMate | kLev|   count |   mate.C|           
   144 |TRAC01  |      1 |      0 |  35 |       0 |
   157 |TRAC02  |     36 |      0 |  35 |       0 |
   170 |TRAC03  |     71 |      0 |  35 |       0 |
   183 |TRAC04  |    106 |      0 |  35 |       0 |
   196 |TRAC05  |    141 |      0 |  35 |       0 |
   209 |TRAC06  |    176 |      0 |  35 |       0 |
   222 |TRAC07  |    211 |      0 |  35 |       0 |
   235 |TRAC08  |    246 |      0 |  35 |       0 |
   248 |TRAC09  |    281 |      0 |  35 |       0 |
   261 |TRAC10  |    316 |      0 |  35 |       0 |
   274 |TRAC11  |    351 |      0 |  35 |       0 |
   287 |TRAC12  |    386 |      0 |  35 |       0 |
   300 |TRAC13  |    421 |      0 |  35 |       0 |
   313 |TRAC14  |    456 |      0 |  35 |       0 |
   326 |TRAC15  |    491 |      0 |  35 |       0 |
   339 |TRAC16  |    526 |      0 |  35 |       0 |
   352 |TRAC17  |    561 |      0 |  35 |       0 |
   365 |TRAC18  |    596 |      0 |  35 |       0 |
   378 |TRAC19  |    631 |      0 |  35 |       0 |
   391 |TRAC20  |    666 |      0 |  35 |       0 |
   404 |TRAC21  |    701 |      0 |  35 |       0 |
   417 |TRAC22  |    736 |      0 |  35 |       0 |
   430 |TRAC23  |    771 |      0 |  35 |       0 |
   443 |TRAC24  |    806 |      0 |  35 |       0 |
   456 |TRAC25  |    841 |      0 |  35 |       0 |
   469 |TRAC26  |    876 |      0 |  35 |       0 |
   482 |TRAC27  |    911 |      0 |  35 |       0 |
   495 |TRAC28  |    946 |      0 |  35 |       0 |
   508 |TRAC29  |    981 |      0 |  35 |       0 |
   521 |TRAC30  |   1016 |      0 |  35 |       0 |
   534 |TRAC31  |   1051 |      0 |  35 |       0 |
   547 |TRAC32  |   1086 |      0 |  35 |       0 |
   560 |TRAC33  |   1121 |      0 |  35 |       0 |
   573 |TRAC34  |   1156 |      0 |  35 |       0 |
   586 |TRAC35  |   1191 |      0 |  35 |       0 |
   599 |TRAC36  |   1226 |      0 |  35 |       0 |
   612 |TRAC37  |   1261 |      0 |  35 |       0 |
   625 |TRAC38  |   1296 |      0 |  35 |       0 |
   638 |TRAC39  |   1331 |      0 |  35 |       0 |
   651 |TRAC40  |   1366 |      0 |  35 |       0 |
   664 |TRAC41  |   1401 |      0 |  35 |       0 |
   677 |TRAC42  |   1436 |      0 |  35 |       0 |
   690 |TRAC43  |   1471 |      0 |  35 |       0 |
   703 |TRAC44  |   1506 |      0 |  35 |       0 |
   716 |TRAC45  |   1541 |      0 |  35 |       0 |
   729 |TRAC46  |   1576 |      0 |  35 |       0 |
   742 |TRAC47  |   1611 |      0 |  35 |       0 |
   755 |TRAC48  |   1646 |      0 |  35 |       0 |
   768 |TRAC49  |   1681 |      0 |  35 |       0 |
   781 |TRAC50  |   1716 |      0 |  35 |       0 |
   794 |TRAC51  |   1751 |      0 |  35 |       0 |
   807 |TRAC52  |   1786 |      0 |  35 |       0 |
   820 |TRAC53  |   1821 |      0 |  35 |       0 |
   833 |TRAC54  |   1856 |      0 |  35 |       0 |
   846 |TRAC55  |   1891 |      0 |  35 |       0 |
   859 |TRAC56  |   1926 |      0 |  35 |       0 |
   872 |TRAC57  |   1961 |      0 |  35 |       0 |
   885 |TRAC58  |   1996 |      0 |  35 |       0 |
   898 |TRAC59  |   2031 |      0 |  35 |       0 |
   911 |TRAC60  |   2066 |      0 |  35 |       0 |
   924 |TRAC61  |   2101 |      0 |  35 |       0 |
   937 |TRAC62  |   2136 |      0 |  35 |       0 |
   950 |TRAC63  |   2171 |      0 |  35 |       0 |
   963 |TRAC64  |   2206 |      0 |  35 |       0 |
   976 |TRAC65  |   2241 |      0 |  35 |       0 |
   989 |TRAC66  |   2276 |      0 |  35 |       0 |
  1002 |TRAC67  |   2311 |      0 |  35 |       0 |
  1015 |TRAC68  |   2346 |      0 |  35 |       0 |
  1028 |TRAC69  |   2381 |      0 |  35 |       0 |
  1041 |TRAC70  |   2416 |      0 |  35 |       0 |
  1054 |TRAC71  |   2451 |      0 |  35 |       0 |
  1067 |TRAC72  |   2486 |      0 |  35 |       0 |
  1080 |TRAC73  |   2521 |      0 |  35 |       0 |
  1093 |TRAC74  |   2556 |      0 |  35 |       0 |
  1106 |TRAC75  |   2591 |      0 |  35 |       0 |
  1119 |TRAC76  |   2626 |      0 |  35 |       0 |
  1132 |TRAC77  |   2661 |      0 |  35 |       0 |
  1145 |TRAC78  |   2696 |      0 |  35 |       0 |
  1158 |TRAC79  |   2731 |      0 |  35 |       0 |
  1171 |TRAC80  |   2766 |      0 |  35 |       0 |
  1184 |TRAC81  |   2801 |      0 |  35 |       0 |
  1197 |TRAC82  |   2836 |      0 |  35 |       0 |
  1210 |TRAC83  |   2871 |      0 |  35 |       0 |
  1223 |TRAC84  |   2906 |      0 |  35 |       0 |
  1236 |TRAC85  |   2941 |      0 |  35 |       0 |
  1249 |TRAC86  |   2976 |      0 |  35 |       0 |
  1262 |TRAC87  |   3011 |      0 |  35 |       0 |
  1275 |TRAC88  |   3046 |      0 |  35 |       0 |
  1288 |TRAC89  |   3081 |      0 |  35 |       0 |
  1301 |TRAC90  |   3116 |      0 |  35 |       0 |
  1314 |TRAC91  |   3151 |      0 |  35 |       0 |
  1327 |TRAC92  |   3186 |      0 |  35 |       0 |
  1340 |TRAC93  |   3221 |      0 |  35 |       0 |
  1353 |TRAC94  |   3256 |      0 |  35 |       0 |
  1366 |TRAC95  |   3291 |      0 |  35 |       0 |
  1379 |TRAC96  |   3326 |      0 |  35 |       0 |
  1392 |TRAC97  |   3361 |      0 |  35 |       0 |
  1405 |TRAC98  |   3396 |      0 |  35 |       0 |
------------------------------------------------------------------------
Global & Regional Statistics diagnostics: Number of lists:     0
------------------------------------------------------------------------
(PID.TID 0000.0001)  MDS_READ_FIELD: opening global file: ../input/input/loc1_NH4_run83_janprof.bin
(PID.TID 0000.0001)  MDS_READ_FIELD: opening global file: ../input/input/loc1_NO2_run83_janprof.bin
(PID.TID 0000.0001)  MDS_READ_FIELD: opening global file: ../input/input/loc1_nitr_janprof.bin
(PID.TID 0000.0001)  MDS_READ_FIELD: opening global file: ../input/input/loc1_phos_janprof.bin
(PID.TID 0000.0001)  MDS_READ_FIELD: opening global file: ../input/input/loc1_sil_janprof.bin
(PID.TID 0000.0001)  MDS_READ_FIELD: opening global file: ../input/input/fet_uniform.bin
(PID.TID 0000.0001)  MDS_READ_FIELD: opening global file: ../input/input/loc1_DON_run83_janprof.bin
(PID.TID 0000.0001)  MDS_READ_FIELD: opening global file: ../input/input/loc1_DOP_run83_janprof.bin
(PID.TID 0000.0001)  MDS_READ_FIELD: opening global file: ../input/input/loc1_DOFe_run83_janprof.bin
(PID.TID 0000.0001)  MDS_READ_FIELD: opening global file: ../input/input/loc1_PON_run83_janprof.bin
(PID.TID 0000.0001)  MDS_READ_FIELD: opening global file: ../input/input/loc1_POP_run83_janprof.bin
(PID.TID 0000.0001)  MDS_READ_FIELD: opening global file: ../input/input/loc1_POSi_run83_janprof.bin
(PID.TID 0000.0001)  MDS_READ_FIELD: opening global file: ../input/input/loc1_POFe_run83_janprof.bin
(PID.TID 0000.0001)  MDS_READ_FIELD: opening global file: ../input/input/loc1_DOP_run83_janprof.bin
(PID.TID 0000.0001)  MDS_READ_FIELD: opening global file: ../input/input/loc1_biomass_run83_janprof.bin
(PID.TID 0000.0001)  MDS_READ_FIELD: opening global file: ../input/input/loc1_biomass_run83_janprof.bin
(PID.TID 0000.0001)  MDS_READ_FIELD: opening global file: ../input/input/loc1_biomass_run83_janprof.bin
(PID.TID 0000.0001)  MDS_READ_FIELD: opening global file: ../input/input/loc1_biomass_run83_janprof.bin
(PID.TID 0000.0001)  MDS_READ_FIELD: opening global file: ../input/input/loc1_biomass_run83_janprof.bin
(PID.TID 0000.0001)  MDS_READ_FIELD: opening global file: ../input/input/loc1_biomass_run83_janprof.bin
(PID.TID 0000.0001)  MDS_READ_FIELD: opening global file: ../input/input/loc1_biomass_run83_janprof.bin
(PID.TID 0000.0001)  MDS_READ_FIELD: opening global file: ../input/input/loc1_biomass_run83_janprof.bin
(PID.TID 0000.0001)  MDS_READ_FIELD: opening global file: ../input/input/loc1_biomass_run83_janprof.bin
(PID.TID 0000.0001)  MDS_READ_FIELD: opening global file: ../input/input/loc1_biomass_run83_janprof.bin
(PID.TID 0000.0001)  MDS_READ_FIELD: opening global file: ../input/input/loc1_biomass_run83_janprof.bin
(PID.TID 0000.0001)  MDS_READ_FIELD: opening global file: ../input/input/loc1_biomass_run83_janprof.bin
(PID.TID 0000.0001)  MDS_READ_FIELD: opening global file: ../input/input/loc1_biomass_run83_janprof.bin
(PID.TID 0000.0001)  MDS_READ_FIELD: opening global file: ../input/input/loc1_biomass_run83_janprof.bin
(PID.TID 0000.0001)  MDS_READ_FIELD: opening global file: ../input/input/loc1_biomass_run83_janprof.bin
(PID.TID 0000.0001)  MDS_READ_FIELD: opening global file: ../input/input/loc1_biomass_run83_janprof.bin
(PID.TID 0000.0001)  MDS_READ_FIELD: opening global file: ../input/input/loc1_biomass_run83_janprof.bin
(PID.TID 0000.0001)  MDS_READ_FIELD: opening global file: ../input/input/loc1_biomass_run83_janprof.bin
(PID.TID 0000.0001)  MDS_READ_FIELD: opening global file: ../input/input/loc1_biomass_run83_janprof.bin
(PID.TID 0000.0001)  MDS_READ_FIELD: opening global file: ../input/input/loc1_biomass_run83_janprof.bin
(PID.TID 0000.0001)  MDS_READ_FIELD: opening global file: ../input/input/loc1_biomass_run83_janprof.bin
(PID.TID 0000.0001)  MDS_READ_FIELD: opening global file: ../input/input/loc1_biomass_run83_janprof.bin
(PID.TID 0000.0001)  MDS_READ_FIELD: opening global file: ../input/input/loc1_biomass_run83_janprof.bin
(PID.TID 0000.0001)  MDS_READ_FIELD: opening global file: ../input/input/loc1_biomass_run83_janprof.bin
(PID.TID 0000.0001)  MDS_READ_FIELD: opening global file: ../input/input/loc1_biomass_run83_janprof.bin
(PID.TID 0000.0001)  MDS_READ_FIELD: opening global file: ../input/input/loc1_biomass_run83_janprof.bin
(PID.TID 0000.0001)  MDS_READ_FIELD: opening global file: ../input/input/loc1_biomass_run83_janprof.bin
(PID.TID 0000.0001)  MDS_READ_FIELD: opening global file: ../input/input/loc1_biomass_run83_janprof.bin
(PID.TID 0000.0001)  MDS_READ_FIELD: opening global file: ../input/input/loc1_biomass_run83_janprof.bin
(PID.TID 0000.0001)  MDS_READ_FIELD: opening global file: ../input/input/loc1_biomass_run83_janprof.bin
(PID.TID 0000.0001)  MDS_READ_FIELD: opening global file: ../input/input/loc1_biomass_run83_janprof.bin
(PID.TID 0000.0001)  MDS_READ_FIELD: opening global file: ../input/input/loc1_biomass_run83_janprof.bin
(PID.TID 0000.0001)  MDS_READ_FIELD: opening global file: ../input/input/loc1_biomass_run83_janprof.bin
(PID.TID 0000.0001)  MDS_READ_FIELD: opening global file: ../input/input/loc1_biomass_run83_janprof.bin
(PID.TID 0000.0001)  MDS_READ_FIELD: opening global file: ../input/input/loc1_biomass_run83_janprof.bin
(PID.TID 0000.0001)  MDS_READ_FIELD: opening global file: ../input/input/loc1_biomass_run83_janprof.bin
(PID.TID 0000.0001)  MDS_READ_FIELD: opening global file: ../input/input/loc1_biomass_run83_janprof.bin
(PID.TID 0000.0001)  MDS_READ_FIELD: opening global file: ../input/input/loc1_biomass_run83_janprof.bin
(PID.TID 0000.0001)  MDS_READ_FIELD: opening global file: ../input/input/loc1_biomass_run83_janprof.bin
(PID.TID 0000.0001)  MDS_READ_FIELD: opening global file: ../input/input/loc1_biomass_run83_janprof.bin
(PID.TID 0000.0001)  MDS_READ_FIELD: opening global file: ../input/input/loc1_biomass_run83_janprof.bin
(PID.TID 0000.0001)  MDS_READ_FIELD: opening global file: ../input/input/loc1_biomass_run83_janprof.bin
(PID.TID 0000.0001)  MDS_READ_FIELD: opening global file: ../input/input/loc1_biomass_run83_janprof.bin
(PID.TID 0000.0001)  MDS_READ_FIELD: opening global file: ../input/input/loc1_biomass_run83_janprof.bin
(PID.TID 0000.0001)  MDS_READ_FIELD: opening global file: ../input/input/loc1_biomass_run83_janprof.bin
(PID.TID 0000.0001)  MDS_READ_FIELD: opening global file: ../input/input/loc1_biomass_run83_janprof.bin
(PID.TID 0000.0001)  MDS_READ_FIELD: opening global file: ../input/input/loc1_biomass_run83_janprof.bin
(PID.TID 0000.0001)  MDS_READ_FIELD: opening global file: ../input/input/loc1_biomass_run83_janprof.bin
(PID.TID 0000.0001)  MDS_READ_FIELD: opening global file: ../input/input/loc1_biomass_run83_janprof.bin
(PID.TID 0000.0001)  MDS_READ_FIELD: opening global file: ../input/input/loc1_biomass_run83_janprof.bin
(PID.TID 0000.0001)  MDS_READ_FIELD: opening global file: ../input/input/loc1_biomass_run83_janprof.bin
(PID.TID 0000.0001)  MDS_READ_FIELD: opening global file: ../input/input/loc1_biomass_run83_janprof.bin
(PID.TID 0000.0001)  MDS_READ_FIELD: opening global file: ../input/input/loc1_biomass_run83_janprof.bin
(PID.TID 0000.0001)  MDS_READ_FIELD: opening global file: ../input/input/loc1_biomass_run83_janprof.bin
(PID.TID 0000.0001)  MDS_READ_FIELD: opening global file: ../input/input/loc1_biomass_run83_janprof.bin
(PID.TID 0000.0001)  MDS_READ_FIELD: opening global file: ../input/input/loc1_biomass_run83_janprof.bin
(PID.TID 0000.0001)  MDS_READ_FIELD: opening global file: ../input/input/loc1_biomass_run83_janprof.bin
(PID.TID 0000.0001)  MDS_READ_FIELD: opening global file: ../input/input/loc1_biomass_run83_janprof.bin
(PID.TID 0000.0001)  MDS_READ_FIELD: opening global file: ../input/input/loc1_biomass_run83_janprof.bin
(PID.TID 0000.0001)  MDS_READ_FIELD: opening global file: ../input/input/loc1_biomass_run83_janprof.bin
(PID.TID 0000.0001)  MDS_READ_FIELD: opening global file: ../input/input/loc1_biomass_run83_janprof.bin
(PID.TID 0000.0001)  MDS_READ_FIELD: opening global file: ../input/input/loc1_biomass_run83_janprof.bin
(PID.TID 0000.0001)  MDS_READ_FIELD: opening global file: ../input/input/loc1_biomass_run83_janprof.bin
(PID.TID 0000.0001)  MDS_READ_FIELD: opening global file: ../input/input/loc1_biomass_run83_janprof.bin
(PID.TID 0000.0001)  MDS_READ_FIELD: opening global file: ../input/input/loc1_biomass_run83_janprof.bin
(PID.TID 0000.0001)  MDS_READ_FIELD: opening global file: ../input/input/loc1_biomass_run83_janprof.bin
(PID.TID 0000.0001)  MDS_READ_FIELD: opening global file: ../input/input/loc1_biomass_run83_janprof.bin
(PID.TID 0000.0001)  MDS_READ_FIELD: opening global file: ../input/input/loc1_biomass_run83_janprof.bin
(PID.TID 0000.0001)  MDS_READ_FIELD: opening global file: ../input/input/loc1_biomass_run83_janprof.bin
(PID.TID 0000.0001)  MDS_READ_FIELD: opening global file: ../input/input/loc1_biomass_run83_janprof.bin
(PID.TID 0000.0001)  MDS_READ_FIELD: opening global file: ../input/input/loc1_biomass_run83_janprof.bin
(PID.TID 0000.0001)  MDS_READ_FIELD: opening global file: ../input/input/loc1_biomass_run83_janprof.bin
(PID.TID 0000.0001)  MDS_READ_FIELD: opening global file: ../input/input/loc1_biomass_run83_janprof.bin
(PID.TID 0000.0001)  MDS_READ_FIELD: opening global file: ../input/input/loc1_biomass_run83_janprof.bin
(PID.TID 0000.0001)  MDS_READ_FIELD: opening global file: ../input/input/loc1_biomass_run83_janprof.bin
(PID.TID 0000.0001)  MDS_READ_FIELD: opening global file: ../input/input/loc1_biomass_run83_janprof.bin
(PID.TID 0000.0001)  MDS_READ_FIELD: opening global file: ../input/input/loc1_biomass_run83_janprof.bin
(PID.TID 0000.0001)  MDS_READ_FIELD: opening global file: ../input/input/loc1_biomass_run83_janprof.bin
(PID.TID 0000.0001)  MDS_READ_FIELD: opening global file: ../input/input/loc1_ZOOP_run83_janprof.bin
(PID.TID 0000.0001)  MDS_READ_FIELD: opening global file: ../input/input/loc1_ZOOP_run83_janprof.bin
(PID.TID 0000.0001)  MDS_READ_FIELD: opening global file: ../input/input/loc1_oasim_edp01_below.bin
(PID.TID 0000.0001)  MDS_READ_FIELD: opening global file: ../input/input/loc1_oasim_edp01_below.bin
(PID.TID 0000.0001)  MDS_READ_FIELD: opening global file: ../input/input/loc1_oasim_esp01_below.bin
(PID.TID 0000.0001)  MDS_READ_FIELD: opening global file: ../input/input/loc1_oasim_esp01_below.bin
(PID.TID 0000.0001)  MDS_READ_FIELD: opening global file: ../input/input/loc1_oasim_edp02_below.bin
(PID.TID 0000.0001)  MDS_READ_FIELD: opening global file: ../input/input/loc1_oasim_edp02_below.bin
(PID.TID 0000.0001)  MDS_READ_FIELD: opening global file: ../input/input/loc1_oasim_esp02_below.bin
(PID.TID 0000.0001)  MDS_READ_FIELD: opening global file: ../input/input/loc1_oasim_esp02_below.bin
(PID.TID 0000.0001)  MDS_READ_FIELD: opening global file: ../input/input/loc1_oasim_edp03_below.bin
(PID.TID 0000.0001)  MDS_READ_FIELD: opening global file: ../input/input/loc1_oasim_edp03_below.bin
(PID.TID 0000.0001)  MDS_READ_FIELD: opening global file: ../input/input/loc1_oasim_esp03_below.bin
(PID.TID 0000.0001)  MDS_READ_FIELD: opening global file: ../input/input/loc1_oasim_esp03_below.bin
(PID.TID 0000.0001)  MDS_READ_FIELD: opening global file: ../input/input/loc1_oasim_edp04_below.bin
(PID.TID 0000.0001)  MDS_READ_FIELD: opening global file: ../input/input/loc1_oasim_edp04_below.bin
(PID.TID 0000.0001)  MDS_READ_FIELD: opening global file: ../input/input/loc1_oasim_esp04_below.bin
(PID.TID 0000.0001)  MDS_READ_FIELD: opening global file: ../input/input/loc1_oasim_esp04_below.bin
(PID.TID 0000.0001)  MDS_READ_FIELD: opening global file: ../input/input/loc1_oasim_edp05_below.bin
(PID.TID 0000.0001)  MDS_READ_FIELD: opening global file: ../input/input/loc1_oasim_edp05_below.bin
(PID.TID 0000.0001)  MDS_READ_FIELD: opening global file: ../input/input/loc1_oasim_esp05_below.bin
(PID.TID 0000.0001)  MDS_READ_FIELD: opening global file: ../input/input/loc1_oasim_esp05_below.bin
(PID.TID 0000.0001)  MDS_READ_FIELD: opening global file: ../input/input/loc1_oasim_edp06_below.bin
(PID.TID 0000.0001)  MDS_READ_FIELD: opening global file: ../input/input/loc1_oasim_edp06_below.bin
(PID.TID 0000.0001)  MDS_READ_FIELD: opening global file: ../input/input/loc1_oasim_esp06_below.bin
(PID.TID 0000.0001)  MDS_READ_FIELD: opening global file: ../input/input/loc1_oasim_esp06_below.bin
(PID.TID 0000.0001)  MDS_READ_FIELD: opening global file: ../input/input/loc1_oasim_edp07_below.bin
(PID.TID 0000.0001)  MDS_READ_FIELD: opening global file: ../input/input/loc1_oasim_edp07_below.bin
(PID.TID 0000.0001)  MDS_READ_FIELD: opening global file: ../input/input/loc1_oasim_esp07_below.bin
(PID.TID 0000.0001)  MDS_READ_FIELD: opening global file: ../input/input/loc1_oasim_esp07_below.bin
(PID.TID 0000.0001)  MDS_READ_FIELD: opening global file: ../input/input/loc1_oasim_edp08_below.bin
(PID.TID 0000.0001)  MDS_READ_FIELD: opening global file: ../input/input/loc1_oasim_edp08_below.bin
(PID.TID 0000.0001)  MDS_READ_FIELD: opening global file: ../input/input/loc1_oasim_esp08_below.bin
(PID.TID 0000.0001)  MDS_READ_FIELD: opening global file: ../input/input/loc1_oasim_esp08_below.bin
(PID.TID 0000.0001)  MDS_READ_FIELD: opening global file: ../input/input/loc1_oasim_edp09_below.bin
(PID.TID 0000.0001)  MDS_READ_FIELD: opening global file: ../input/input/loc1_oasim_edp09_below.bin
(PID.TID 0000.0001)  MDS_READ_FIELD: opening global file: ../input/input/loc1_oasim_esp09_below.bin
(PID.TID 0000.0001)  MDS_READ_FIELD: opening global file: ../input/input/loc1_oasim_esp09_below.bin
(PID.TID 0000.0001)  MDS_READ_FIELD: opening global file: ../input/input/loc1_oasim_edp10_below.bin
(PID.TID 0000.0001)  MDS_READ_FIELD: opening global file: ../input/input/loc1_oasim_edp10_below.bin
(PID.TID 0000.0001)  MDS_READ_FIELD: opening global file: ../input/input/loc1_oasim_esp10_below.bin
(PID.TID 0000.0001)  MDS_READ_FIELD: opening global file: ../input/input/loc1_oasim_esp10_below.bin
(PID.TID 0000.0001)  MDS_READ_FIELD: opening global file: ../input/input/loc1_oasim_edp11_below.bin
(PID.TID 0000.0001)  MDS_READ_FIELD: opening global file: ../input/input/loc1_oasim_edp11_below.bin
(PID.TID 0000.0001)  MDS_READ_FIELD: opening global file: ../input/input/loc1_oasim_esp11_below.bin
(PID.TID 0000.0001)  MDS_READ_FIELD: opening global file: ../input/input/loc1_oasim_esp11_below.bin
(PID.TID 0000.0001)  MDS_READ_FIELD: opening global file: ../input/input/loc1_oasim_edp12_below.bin
(PID.TID 0000.0001)  MDS_READ_FIELD: opening global file: ../input/input/loc1_oasim_edp12_below.bin
(PID.TID 0000.0001)  MDS_READ_FIELD: opening global file: ../input/input/loc1_oasim_esp12_below.bin
(PID.TID 0000.0001)  MDS_READ_FIELD: opening global file: ../input/input/loc1_oasim_esp12_below.bin
(PID.TID 0000.0001)  MDS_READ_FIELD: opening global file: ../input/input/loc1_oasim_edp13_below.bin
(PID.TID 0000.0001)  MDS_READ_FIELD: opening global file: ../input/input/loc1_oasim_edp13_below.bin
(PID.TID 0000.0001)  MDS_READ_FIELD: opening global file: ../input/input/loc1_oasim_esp13_below.bin
(PID.TID 0000.0001)  MDS_READ_FIELD: opening global file: ../input/input/loc1_oasim_esp13_below.bin
(PID.TID 0000.0001)  MDS_READ_FIELD: opening global file: ../input/input/loc1_FeFlux_monsurf.bin
(PID.TID 0000.0001)  MDS_READ_FIELD: opening global file: ../input/input/loc1_FeFlux_monsurf.bin
(PID.TID 0000.0001) // =======================================================
(PID.TID 0000.0001) // Model current state
(PID.TID 0000.0001) // =======================================================
(PID.TID 0000.0001) 
(PID.TID 0000.0001) // =======================================================
(PID.TID 0000.0001) // Begin MONITOR dynamic field statistics
(PID.TID 0000.0001) // =======================================================
(PID.TID 0000.0001) %MON time_tsnumber                =                     0
(PID.TID 0000.0001) %MON time_secondsf                =   0.0000000000000E+00
(PID.TID 0000.0001) %MON dynstat_eta_max              =   0.0000000000000E+00
(PID.TID 0000.0001) %MON dynstat_eta_min              =   0.0000000000000E+00
(PID.TID 0000.0001) %MON dynstat_eta_mean             =   0.0000000000000E+00
(PID.TID 0000.0001) %MON dynstat_eta_sd               =   0.0000000000000E+00
(PID.TID 0000.0001) %MON dynstat_eta_del2             =   0.0000000000000E+00
(PID.TID 0000.0001) %MON dynstat_uvel_max             =   0.0000000000000E+00
(PID.TID 0000.0001) %MON dynstat_uvel_min             =   0.0000000000000E+00
(PID.TID 0000.0001) %MON dynstat_uvel_mean            =   0.0000000000000E+00
(PID.TID 0000.0001) %MON dynstat_uvel_sd              =   0.0000000000000E+00
(PID.TID 0000.0001) %MON dynstat_uvel_del2            =   0.0000000000000E+00
(PID.TID 0000.0001) %MON dynstat_vvel_max             =   0.0000000000000E+00
(PID.TID 0000.0001) %MON dynstat_vvel_min             =   0.0000000000000E+00
(PID.TID 0000.0001) %MON dynstat_vvel_mean            =   0.0000000000000E+00
(PID.TID 0000.0001) %MON dynstat_vvel_sd              =   0.0000000000000E+00
(PID.TID 0000.0001) %MON dynstat_vvel_del2            =   0.0000000000000E+00
(PID.TID 0000.0001) %MON dynstat_wvel_max             =   0.0000000000000E+00
(PID.TID 0000.0001) %MON dynstat_wvel_min             =   0.0000000000000E+00
(PID.TID 0000.0001) %MON dynstat_wvel_mean            =   0.0000000000000E+00
(PID.TID 0000.0001) %MON dynstat_wvel_sd              =   0.0000000000000E+00
(PID.TID 0000.0001) %MON dynstat_wvel_del2            =   0.0000000000000E+00
(PID.TID 0000.0001) %MON dynstat_theta_max            =   2.6345800399780E+01
(PID.TID 0000.0001) %MON dynstat_theta_min            =   2.6737000942230E+00
(PID.TID 0000.0001) %MON dynstat_theta_mean           =   5.4735936027058E+00
(PID.TID 0000.0001) %MON dynstat_theta_sd             =   5.1972090828105E+00
(PID.TID 0000.0001) %MON dynstat_theta_del2           =   0.0000000000000E+00
(PID.TID 0000.0001) %MON dynstat_salt_max             =   3.5000000000000E+01
(PID.TID 0000.0001) %MON dynstat_salt_min             =   3.5000000000000E+01
(PID.TID 0000.0001) %MON dynstat_salt_mean            =   3.5000000000000E+01
(PID.TID 0000.0001) %MON dynstat_salt_sd              =   7.1054273576010E-15
(PID.TID 0000.0001) %MON dynstat_salt_del2            =   0.0000000000000E+00
(PID.TID 0000.0001) %MON dynstat_sst_max              =   2.6345800399780E+01
(PID.TID 0000.0001) %MON dynstat_sst_min              =   2.6345800399780E+01
(PID.TID 0000.0001) %MON dynstat_sst_mean             =   2.6345800399780E+01
(PID.TID 0000.0001) %MON dynstat_sst_sd               =   0.0000000000000E+00
(PID.TID 0000.0001) %MON dynstat_sst_del2             =   0.0000000000000E+00
(PID.TID 0000.0001) %MON dynstat_sss_max              =   3.5000000000000E+01
(PID.TID 0000.0001) %MON dynstat_sss_min              =   3.5000000000000E+01
(PID.TID 0000.0001) %MON dynstat_sss_mean             =   3.5000000000000E+01
(PID.TID 0000.0001) %MON dynstat_sss_sd               =   0.0000000000000E+00
(PID.TID 0000.0001) %MON dynstat_sss_del2             =   0.0000000000000E+00
(PID.TID 0000.0001) %MON forcing_qnet_max             =   0.0000000000000E+00
(PID.TID 0000.0001) %MON forcing_qnet_min             =   0.0000000000000E+00
(PID.TID 0000.0001) %MON forcing_qnet_mean            =   0.0000000000000E+00
(PID.TID 0000.0001) %MON forcing_qnet_sd              =   0.0000000000000E+00
(PID.TID 0000.0001) %MON forcing_qnet_del2            =   0.0000000000000E+00
(PID.TID 0000.0001) %MON forcing_qsw_max              =   0.0000000000000E+00
(PID.TID 0000.0001) %MON forcing_qsw_min              =   0.0000000000000E+00
(PID.TID 0000.0001) %MON forcing_qsw_mean             =   0.0000000000000E+00
(PID.TID 0000.0001) %MON forcing_qsw_sd               =   0.0000000000000E+00
(PID.TID 0000.0001) %MON forcing_qsw_del2             =   0.0000000000000E+00
(PID.TID 0000.0001) %MON forcing_empmr_max            =   0.0000000000000E+00
(PID.TID 0000.0001) %MON forcing_empmr_min            =   0.0000000000000E+00
(PID.TID 0000.0001) %MON forcing_empmr_mean           =   0.0000000000000E+00
(PID.TID 0000.0001) %MON forcing_empmr_sd             =   0.0000000000000E+00
(PID.TID 0000.0001) %MON forcing_empmr_del2           =   0.0000000000000E+00
(PID.TID 0000.0001) %MON forcing_fu_max               =   0.0000000000000E+00
(PID.TID 0000.0001) %MON forcing_fu_min               =   0.0000000000000E+00
(PID.TID 0000.0001) %MON forcing_fu_mean              =   0.0000000000000E+00
(PID.TID 0000.0001) %MON forcing_fu_sd                =   0.0000000000000E+00
(PID.TID 0000.0001) %MON forcing_fu_del2              =   0.0000000000000E+00
(PID.TID 0000.0001) %MON forcing_fv_max               =   0.0000000000000E+00
(PID.TID 0000.0001) %MON forcing_fv_min               =   0.0000000000000E+00
(PID.TID 0000.0001) %MON forcing_fv_mean              =   0.0000000000000E+00
(PID.TID 0000.0001) %MON forcing_fv_sd                =   0.0000000000000E+00
(PID.TID 0000.0001) %MON forcing_fv_del2              =   0.0000000000000E+00
(PID.TID 0000.0001) %MON advcfl_uvel_max              =   0.0000000000000E+00
(PID.TID 0000.0001) %MON advcfl_vvel_max              =   0.0000000000000E+00
(PID.TID 0000.0001) %MON advcfl_wvel_max              =   0.0000000000000E+00
(PID.TID 0000.0001) %MON advcfl_W_hf_max              =   0.0000000000000E+00
(PID.TID 0000.0001) %MON pe_b_mean                    =   0.0000000000000E+00
(PID.TID 0000.0001) %MON ke_max                       =   0.0000000000000E+00
(PID.TID 0000.0001) %MON ke_mean                      =   0.0000000000000E+00
(PID.TID 0000.0001) %MON ke_vol                       =   4.1199767883485E+13
(PID.TID 0000.0001) %MON vort_r_min                   =   0.0000000000000E+00
(PID.TID 0000.0001) %MON vort_r_max                   =   0.0000000000000E+00
(PID.TID 0000.0001) %MON vort_a_mean                  =  -4.5067801836625E-05
(PID.TID 0000.0001) %MON vort_a_sd                    =  -4.1359030627651E-25
(PID.TID 0000.0001) %MON vort_p_mean                  =  -4.5067801836625E-05
(PID.TID 0000.0001) %MON vort_p_sd                    =   0.0000000000000E+00
(PID.TID 0000.0001) %MON surfExpan_theta_mean         =   0.0000000000000E+00
(PID.TID 0000.0001) %MON surfExpan_salt_mean          =   0.0000000000000E+00
(PID.TID 0000.0001) // =======================================================
(PID.TID 0000.0001) // End MONITOR dynamic field statistics
(PID.TID 0000.0001) // =======================================================
(PID.TID 0000.0001) // =======================================================
(PID.TID 0000.0001) // Begin MONITOR ptracer field statistics
(PID.TID 0000.0001) // =======================================================
(PID.TID 0000.0001) %MON trcstat_ptracer01_max        =   2.0000000000000E+03
(PID.TID 0000.0001) %MON trcstat_ptracer01_min        =   2.0000000000000E+03
(PID.TID 0000.0001) %MON trcstat_ptracer01_mean       =   2.0000000000000E+03
(PID.TID 0000.0001) %MON trcstat_ptracer01_sd         =   0.0000000000000E+00
(PID.TID 0000.0001) %MON trcstat_ptracer01_del2       =   0.0000000000000E+00
(PID.TID 0000.0001) %MON trcstat_ptracer02_max        =   2.5584036484361E-02
(PID.TID 0000.0001) %MON trcstat_ptracer02_min        =   1.8763074649542E-07
(PID.TID 0000.0001) %MON trcstat_ptracer02_mean       =   6.0352662496819E-04
(PID.TID 0000.0001) %MON trcstat_ptracer02_sd         =   3.2425361014468E-03
(PID.TID 0000.0001) %MON trcstat_ptracer02_del2       =   0.0000000000000E+00
(PID.TID 0000.0001) %MON trcstat_ptracer03_max        =   1.8258459866047E-02
(PID.TID 0000.0001) %MON trcstat_ptracer03_min        =   3.8796779335826E-06
(PID.TID 0000.0001) %MON trcstat_ptracer03_mean       =   6.0474443227462E-04
(PID.TID 0000.0001) %MON trcstat_ptracer03_sd         =   1.9428680890593E-03
(PID.TID 0000.0001) %MON trcstat_ptracer03_del2       =   0.0000000000000E+00
(PID.TID 0000.0001) %MON trcstat_ptracer04_max        =   3.3903499603271E+01
(PID.TID 0000.0001) %MON trcstat_ptracer04_min        =   4.6300001442432E-02
(PID.TID 0000.0001) %MON trcstat_ptracer04_mean       =   2.3502389802218E+01
(PID.TID 0000.0001) %MON trcstat_ptracer04_sd         =   7.8162030599381E+00
(PID.TID 0000.0001) %MON trcstat_ptracer04_del2       =   0.0000000000000E+00
(PID.TID 0000.0001) %MON trcstat_ptracer05_max        =   2.2437000274658E+00
(PID.TID 0000.0001) %MON trcstat_ptracer05_min        =   2.1024999022484E-01
(PID.TID 0000.0001) %MON trcstat_ptracer05_mean       =   1.5821337454309E+00
(PID.TID 0000.0001) %MON trcstat_ptracer05_sd         =   4.6735065681380E-01
(PID.TID 0000.0001) %MON trcstat_ptracer05_del2       =   0.0000000000000E+00
(PID.TID 0000.0001) %MON trcstat_ptracer06_max        =   3.9387401580811E+01
(PID.TID 0000.0001) %MON trcstat_ptracer06_min        =   1.2247999906540E+00
(PID.TID 0000.0001) %MON trcstat_ptracer06_mean       =   2.9621888811155E+01
(PID.TID 0000.0001) %MON trcstat_ptracer06_sd         =   1.1270588565469E+01
(PID.TID 0000.0001) %MON trcstat_ptracer06_del2       =   0.0000000000000E+00
(PID.TID 0000.0001) %MON trcstat_ptracer07_max        =   1.3000000035390E-03
(PID.TID 0000.0001) %MON trcstat_ptracer07_min        =   1.3000000035390E-03
(PID.TID 0000.0001) %MON trcstat_ptracer07_mean       =   1.3000000035390E-03
(PID.TID 0000.0001) %MON trcstat_ptracer07_sd         =   0.0000000000000E+00
(PID.TID 0000.0001) %MON trcstat_ptracer07_del2       =   0.0000000000000E+00
(PID.TID 0000.0001) %MON trcstat_ptracer08_max        =   0.0000000000000E+00
(PID.TID 0000.0001) %MON trcstat_ptracer08_min        =   0.0000000000000E+00
(PID.TID 0000.0001) %MON trcstat_ptracer08_mean       =   0.0000000000000E+00
(PID.TID 0000.0001) %MON trcstat_ptracer08_sd         =   0.0000000000000E+00
(PID.TID 0000.0001) %MON trcstat_ptracer08_del2       =   0.0000000000000E+00
(PID.TID 0000.0001) %MON trcstat_ptracer09_max        =   8.1815071403980E-02
(PID.TID 0000.0001) %MON trcstat_ptracer09_min        =   0.0000000000000E+00
(PID.TID 0000.0001) %MON trcstat_ptracer09_mean       =   3.4357646734700E-03
(PID.TID 0000.0001) %MON trcstat_ptracer09_sd         =   1.4790744815688E-02
(PID.TID 0000.0001) %MON trcstat_ptracer09_del2       =   0.0000000000000E+00
(PID.TID 0000.0001) %MON trcstat_ptracer10_max        =   5.1134419627488E-03
(PID.TID 0000.0001) %MON trcstat_ptracer10_min        =   0.0000000000000E+00
(PID.TID 0000.0001) %MON trcstat_ptracer10_mean       =   2.1473529209187E-04
(PID.TID 0000.0001) %MON trcstat_ptracer10_sd         =   9.2442155098050E-04
(PID.TID 0000.0001) %MON trcstat_ptracer10_del2       =   0.0000000000000E+00
(PID.TID 0000.0001) %MON trcstat_ptracer11_max        =   5.1134416025889E-06
(PID.TID 0000.0001) %MON trcstat_ptracer11_min        =   0.0000000000000E+00
(PID.TID 0000.0001) %MON trcstat_ptracer11_mean       =   2.1473529239838E-07
(PID.TID 0000.0001) %MON trcstat_ptracer11_sd         =   9.2442155063872E-07
(PID.TID 0000.0001) %MON trcstat_ptracer11_del2       =   0.0000000000000E+00
(PID.TID 0000.0001) %MON trcstat_ptracer12_max        =   0.0000000000000E+00
(PID.TID 0000.0001) %MON trcstat_ptracer12_min        =   0.0000000000000E+00
(PID.TID 0000.0001) %MON trcstat_ptracer12_mean       =   0.0000000000000E+00
(PID.TID 0000.0001) %MON trcstat_ptracer12_sd         =   0.0000000000000E+00
(PID.TID 0000.0001) %MON trcstat_ptracer12_del2       =   0.0000000000000E+00
(PID.TID 0000.0001) %MON trcstat_ptracer13_max        =   4.3595102615654E-03
(PID.TID 0000.0001) %MON trcstat_ptracer13_min        =   1.8765767890727E-05
(PID.TID 0000.0001) %MON trcstat_ptracer13_mean       =   1.2629093434172E-03
(PID.TID 0000.0001) %MON trcstat_ptracer13_sd         =   1.5461536630186E-03
(PID.TID 0000.0001) %MON trcstat_ptracer13_del2       =   0.0000000000000E+00
(PID.TID 0000.0001) %MON trcstat_ptracer14_max        =   2.7246939134784E-04
(PID.TID 0000.0001) %MON trcstat_ptracer14_min        =   1.1728604931704E-06
(PID.TID 0000.0001) %MON trcstat_ptracer14_mean       =   7.8931833963575E-05
(PID.TID 0000.0001) %MON trcstat_ptracer14_sd         =   9.6634603938663E-05
(PID.TID 0000.0001) %MON trcstat_ptracer14_del2       =   0.0000000000000E+00
(PID.TID 0000.0001) %MON trcstat_ptracer15_max        =   1.6253039240837E-02
(PID.TID 0000.0001) %MON trcstat_ptracer15_min        =   1.1382005177438E-03
(PID.TID 0000.0001) %MON trcstat_ptracer15_mean       =   5.4894673427532E-03
(PID.TID 0000.0001) %MON trcstat_ptracer15_sd         =   5.1731692661236E-03
(PID.TID 0000.0001) %MON trcstat_ptracer15_del2       =   0.0000000000000E+00
(PID.TID 0000.0001) %MON trcstat_ptracer16_max        =   2.7246940703662E-07
(PID.TID 0000.0001) %MON trcstat_ptracer16_min        =   1.1728603643846E-09
(PID.TID 0000.0001) %MON trcstat_ptracer16_mean       =   7.8931834490195E-08
(PID.TID 0000.0001) %MON trcstat_ptracer16_sd         =   9.6634605997273E-08
(PID.TID 0000.0001) %MON trcstat_ptracer16_del2       =   0.0000000000000E+00
(PID.TID 0000.0001) %MON trcstat_ptracer17_max        =   0.0000000000000E+00
(PID.TID 0000.0001) %MON trcstat_ptracer17_min        =   0.0000000000000E+00
(PID.TID 0000.0001) %MON trcstat_ptracer17_mean       =   0.0000000000000E+00
(PID.TID 0000.0001) %MON trcstat_ptracer17_sd         =   0.0000000000000E+00
(PID.TID 0000.0001) %MON trcstat_ptracer17_del2       =   0.0000000000000E+00
(PID.TID 0000.0001) %MON trcstat_ptracer18_max        =   5.1134419627488E-03
(PID.TID 0000.0001) %MON trcstat_ptracer18_min        =   0.0000000000000E+00
(PID.TID 0000.0001) %MON trcstat_ptracer18_mean       =   2.1473529209187E-04
(PID.TID 0000.0001) %MON trcstat_ptracer18_sd         =   9.2442155098050E-04
(PID.TID 0000.0001) %MON trcstat_ptracer18_del2       =   0.0000000000000E+00
(PID.TID 0000.0001) %MON trcstat_ptracer19_max        =   8.8153867181973E-04
(PID.TID 0000.0001) %MON trcstat_ptracer19_min        =   0.0000000000000E+00
(PID.TID 0000.0001) %MON trcstat_ptracer19_mean       =   2.6284899836225E-05
(PID.TID 0000.0001) %MON trcstat_ptracer19_sd         =   1.3780694875415E-04
(PID.TID 0000.0001) %MON trcstat_ptracer19_del2       =   0.0000000000000E+00
(PID.TID 0000.0001) %MON trcstat_ptracer20_max        =   8.8153867181973E-04
(PID.TID 0000.0001) %MON trcstat_ptracer20_min        =   0.0000000000000E+00
(PID.TID 0000.0001) %MON trcstat_ptracer20_mean       =   2.6284899836225E-05
(PID.TID 0000.0001) %MON trcstat_ptracer20_sd         =   1.3780694875415E-04
(PID.TID 0000.0001) %MON trcstat_ptracer20_del2       =   0.0000000000000E+00
(PID.TID 0000.0001) %MON trcstat_ptracer21_max        =   8.8153867181973E-04
(PID.TID 0000.0001) %MON trcstat_ptracer21_min        =   0.0000000000000E+00
(PID.TID 0000.0001) %MON trcstat_ptracer21_mean       =   2.6284899836225E-05
(PID.TID 0000.0001) %MON trcstat_ptracer21_sd         =   1.3780694875415E-04
(PID.TID 0000.0001) %MON trcstat_ptracer21_del2       =   0.0000000000000E+00
(PID.TID 0000.0001) %MON trcstat_ptracer22_max        =   8.8153867181973E-04
(PID.TID 0000.0001) %MON trcstat_ptracer22_min        =   0.0000000000000E+00
(PID.TID 0000.0001) %MON trcstat_ptracer22_mean       =   2.6284899836225E-05
(PID.TID 0000.0001) %MON trcstat_ptracer22_sd         =   1.3780694875415E-04
(PID.TID 0000.0001) %MON trcstat_ptracer22_del2       =   0.0000000000000E+00
(PID.TID 0000.0001) %MON trcstat_ptracer23_max        =   8.8153867181973E-04
(PID.TID 0000.0001) %MON trcstat_ptracer23_min        =   0.0000000000000E+00
(PID.TID 0000.0001) %MON trcstat_ptracer23_mean       =   2.6284899836225E-05
(PID.TID 0000.0001) %MON trcstat_ptracer23_sd         =   1.3780694875415E-04
(PID.TID 0000.0001) %MON trcstat_ptracer23_del2       =   0.0000000000000E+00
(PID.TID 0000.0001) %MON trcstat_ptracer24_max        =   8.8153867181973E-04
(PID.TID 0000.0001) %MON trcstat_ptracer24_min        =   0.0000000000000E+00
(PID.TID 0000.0001) %MON trcstat_ptracer24_mean       =   2.6284899836225E-05
(PID.TID 0000.0001) %MON trcstat_ptracer24_sd         =   1.3780694875415E-04
(PID.TID 0000.0001) %MON trcstat_ptracer24_del2       =   0.0000000000000E+00
(PID.TID 0000.0001) %MON trcstat_ptracer25_max        =   8.8153867181973E-04
(PID.TID 0000.0001) %MON trcstat_ptracer25_min        =   0.0000000000000E+00
(PID.TID 0000.0001) %MON trcstat_ptracer25_mean       =   2.6284899836225E-05
(PID.TID 0000.0001) %MON trcstat_ptracer25_sd         =   1.3780694875415E-04
(PID.TID 0000.0001) %MON trcstat_ptracer25_del2       =   0.0000000000000E+00
(PID.TID 0000.0001) %MON trcstat_ptracer26_max        =   8.8153867181973E-04
(PID.TID 0000.0001) %MON trcstat_ptracer26_min        =   0.0000000000000E+00
(PID.TID 0000.0001) %MON trcstat_ptracer26_mean       =   2.6284899836225E-05
(PID.TID 0000.0001) %MON trcstat_ptracer26_sd         =   1.3780694875415E-04
(PID.TID 0000.0001) %MON trcstat_ptracer26_del2       =   0.0000000000000E+00
(PID.TID 0000.0001) %MON trcstat_ptracer27_max        =   8.8153867181973E-04
(PID.TID 0000.0001) %MON trcstat_ptracer27_min        =   0.0000000000000E+00
(PID.TID 0000.0001) %MON trcstat_ptracer27_mean       =   2.6284899836225E-05
(PID.TID 0000.0001) %MON trcstat_ptracer27_sd         =   1.3780694875415E-04
(PID.TID 0000.0001) %MON trcstat_ptracer27_del2       =   0.0000000000000E+00
(PID.TID 0000.0001) %MON trcstat_ptracer28_max        =   8.8153867181973E-04
(PID.TID 0000.0001) %MON trcstat_ptracer28_min        =   0.0000000000000E+00
(PID.TID 0000.0001) %MON trcstat_ptracer28_mean       =   2.6284899836225E-05
(PID.TID 0000.0001) %MON trcstat_ptracer28_sd         =   1.3780694875415E-04
(PID.TID 0000.0001) %MON trcstat_ptracer28_del2       =   0.0000000000000E+00
(PID.TID 0000.0001) %MON trcstat_ptracer29_max        =   8.8153867181973E-04
(PID.TID 0000.0001) %MON trcstat_ptracer29_min        =   0.0000000000000E+00
(PID.TID 0000.0001) %MON trcstat_ptracer29_mean       =   2.6284899836225E-05
(PID.TID 0000.0001) %MON trcstat_ptracer29_sd         =   1.3780694875415E-04
(PID.TID 0000.0001) %MON trcstat_ptracer29_del2       =   0.0000000000000E+00
(PID.TID 0000.0001) %MON trcstat_ptracer30_max        =   8.8153867181973E-04
(PID.TID 0000.0001) %MON trcstat_ptracer30_min        =   0.0000000000000E+00
(PID.TID 0000.0001) %MON trcstat_ptracer30_mean       =   2.6284899836225E-05
(PID.TID 0000.0001) %MON trcstat_ptracer30_sd         =   1.3780694875415E-04
(PID.TID 0000.0001) %MON trcstat_ptracer30_del2       =   0.0000000000000E+00
(PID.TID 0000.0001) %MON trcstat_ptracer31_max        =   8.8153867181973E-04
(PID.TID 0000.0001) %MON trcstat_ptracer31_min        =   0.0000000000000E+00
(PID.TID 0000.0001) %MON trcstat_ptracer31_mean       =   2.6284899836225E-05
(PID.TID 0000.0001) %MON trcstat_ptracer31_sd         =   1.3780694875415E-04
(PID.TID 0000.0001) %MON trcstat_ptracer31_del2       =   0.0000000000000E+00
(PID.TID 0000.0001) %MON trcstat_ptracer32_max        =   8.8153867181973E-04
(PID.TID 0000.0001) %MON trcstat_ptracer32_min        =   0.0000000000000E+00
(PID.TID 0000.0001) %MON trcstat_ptracer32_mean       =   2.6284899836225E-05
(PID.TID 0000.0001) %MON trcstat_ptracer32_sd         =   1.3780694875415E-04
(PID.TID 0000.0001) %MON trcstat_ptracer32_del2       =   0.0000000000000E+00
(PID.TID 0000.0001) %MON trcstat_ptracer33_max        =   8.8153867181973E-04
(PID.TID 0000.0001) %MON trcstat_ptracer33_min        =   0.0000000000000E+00
(PID.TID 0000.0001) %MON trcstat_ptracer33_mean       =   2.6284899836225E-05
(PID.TID 0000.0001) %MON trcstat_ptracer33_sd         =   1.3780694875415E-04
(PID.TID 0000.0001) %MON trcstat_ptracer33_del2       =   0.0000000000000E+00
(PID.TID 0000.0001) %MON trcstat_ptracer34_max        =   8.8153867181973E-04
(PID.TID 0000.0001) %MON trcstat_ptracer34_min        =   0.0000000000000E+00
(PID.TID 0000.0001) %MON trcstat_ptracer34_mean       =   2.6284899836225E-05
(PID.TID 0000.0001) %MON trcstat_ptracer34_sd         =   1.3780694875415E-04
(PID.TID 0000.0001) %MON trcstat_ptracer34_del2       =   0.0000000000000E+00
(PID.TID 0000.0001) %MON trcstat_ptracer35_max        =   8.8153867181973E-04
(PID.TID 0000.0001) %MON trcstat_ptracer35_min        =   0.0000000000000E+00
(PID.TID 0000.0001) %MON trcstat_ptracer35_mean       =   2.6284899836225E-05
(PID.TID 0000.0001) %MON trcstat_ptracer35_sd         =   1.3780694875415E-04
(PID.TID 0000.0001) %MON trcstat_ptracer35_del2       =   0.0000000000000E+00
(PID.TID 0000.0001) %MON trcstat_ptracer36_max        =   8.8153867181973E-04
(PID.TID 0000.0001) %MON trcstat_ptracer36_min        =   0.0000000000000E+00
(PID.TID 0000.0001) %MON trcstat_ptracer36_mean       =   2.6284899836225E-05
(PID.TID 0000.0001) %MON trcstat_ptracer36_sd         =   1.3780694875415E-04
(PID.TID 0000.0001) %MON trcstat_ptracer36_del2       =   0.0000000000000E+00
(PID.TID 0000.0001) %MON trcstat_ptracer37_max        =   8.8153867181973E-04
(PID.TID 0000.0001) %MON trcstat_ptracer37_min        =   0.0000000000000E+00
(PID.TID 0000.0001) %MON trcstat_ptracer37_mean       =   2.6284899836225E-05
(PID.TID 0000.0001) %MON trcstat_ptracer37_sd         =   1.3780694875415E-04
(PID.TID 0000.0001) %MON trcstat_ptracer37_del2       =   0.0000000000000E+00
(PID.TID 0000.0001) %MON trcstat_ptracer38_max        =   8.8153867181973E-04
(PID.TID 0000.0001) %MON trcstat_ptracer38_min        =   0.0000000000000E+00
(PID.TID 0000.0001) %MON trcstat_ptracer38_mean       =   2.6284899836225E-05
(PID.TID 0000.0001) %MON trcstat_ptracer38_sd         =   1.3780694875415E-04
(PID.TID 0000.0001) %MON trcstat_ptracer38_del2       =   0.0000000000000E+00
(PID.TID 0000.0001) %MON trcstat_ptracer39_max        =   8.8153867181973E-04
(PID.TID 0000.0001) %MON trcstat_ptracer39_min        =   0.0000000000000E+00
(PID.TID 0000.0001) %MON trcstat_ptracer39_mean       =   2.6284899836225E-05
(PID.TID 0000.0001) %MON trcstat_ptracer39_sd         =   1.3780694875415E-04
(PID.TID 0000.0001) %MON trcstat_ptracer39_del2       =   0.0000000000000E+00
(PID.TID 0000.0001) %MON trcstat_ptracer40_max        =   8.8153867181973E-04
(PID.TID 0000.0001) %MON trcstat_ptracer40_min        =   0.0000000000000E+00
(PID.TID 0000.0001) %MON trcstat_ptracer40_mean       =   2.6284899836225E-05
(PID.TID 0000.0001) %MON trcstat_ptracer40_sd         =   1.3780694875415E-04
(PID.TID 0000.0001) %MON trcstat_ptracer40_del2       =   0.0000000000000E+00
(PID.TID 0000.0001) %MON trcstat_ptracer41_max        =   8.8153867181973E-04
(PID.TID 0000.0001) %MON trcstat_ptracer41_min        =   0.0000000000000E+00
(PID.TID 0000.0001) %MON trcstat_ptracer41_mean       =   2.6284899836225E-05
(PID.TID 0000.0001) %MON trcstat_ptracer41_sd         =   1.3780694875415E-04
(PID.TID 0000.0001) %MON trcstat_ptracer41_del2       =   0.0000000000000E+00
(PID.TID 0000.0001) %MON trcstat_ptracer42_max        =   8.8153867181973E-04
(PID.TID 0000.0001) %MON trcstat_ptracer42_min        =   0.0000000000000E+00
(PID.TID 0000.0001) %MON trcstat_ptracer42_mean       =   2.6284899836225E-05
(PID.TID 0000.0001) %MON trcstat_ptracer42_sd         =   1.3780694875415E-04
(PID.TID 0000.0001) %MON trcstat_ptracer42_del2       =   0.0000000000000E+00
(PID.TID 0000.0001) %MON trcstat_ptracer43_max        =   8.8153867181973E-04
(PID.TID 0000.0001) %MON trcstat_ptracer43_min        =   0.0000000000000E+00
(PID.TID 0000.0001) %MON trcstat_ptracer43_mean       =   2.6284899836225E-05
(PID.TID 0000.0001) %MON trcstat_ptracer43_sd         =   1.3780694875415E-04
(PID.TID 0000.0001) %MON trcstat_ptracer43_del2       =   0.0000000000000E+00
(PID.TID 0000.0001) %MON trcstat_ptracer44_max        =   8.8153867181973E-04
(PID.TID 0000.0001) %MON trcstat_ptracer44_min        =   0.0000000000000E+00
(PID.TID 0000.0001) %MON trcstat_ptracer44_mean       =   2.6284899836225E-05
(PID.TID 0000.0001) %MON trcstat_ptracer44_sd         =   1.3780694875415E-04
(PID.TID 0000.0001) %MON trcstat_ptracer44_del2       =   0.0000000000000E+00
(PID.TID 0000.0001) %MON trcstat_ptracer45_max        =   8.8153867181973E-04
(PID.TID 0000.0001) %MON trcstat_ptracer45_min        =   0.0000000000000E+00
(PID.TID 0000.0001) %MON trcstat_ptracer45_mean       =   2.6284899836225E-05
(PID.TID 0000.0001) %MON trcstat_ptracer45_sd         =   1.3780694875415E-04
(PID.TID 0000.0001) %MON trcstat_ptracer45_del2       =   0.0000000000000E+00
(PID.TID 0000.0001) %MON trcstat_ptracer46_max        =   8.8153867181973E-04
(PID.TID 0000.0001) %MON trcstat_ptracer46_min        =   0.0000000000000E+00
(PID.TID 0000.0001) %MON trcstat_ptracer46_mean       =   2.6284899836225E-05
(PID.TID 0000.0001) %MON trcstat_ptracer46_sd         =   1.3780694875415E-04
(PID.TID 0000.0001) %MON trcstat_ptracer46_del2       =   0.0000000000000E+00
(PID.TID 0000.0001) %MON trcstat_ptracer47_max        =   8.8153867181973E-04
(PID.TID 0000.0001) %MON trcstat_ptracer47_min        =   0.0000000000000E+00
(PID.TID 0000.0001) %MON trcstat_ptracer47_mean       =   2.6284899836225E-05
(PID.TID 0000.0001) %MON trcstat_ptracer47_sd         =   1.3780694875415E-04
(PID.TID 0000.0001) %MON trcstat_ptracer47_del2       =   0.0000000000000E+00
(PID.TID 0000.0001) %MON trcstat_ptracer48_max        =   8.8153867181973E-04
(PID.TID 0000.0001) %MON trcstat_ptracer48_min        =   0.0000000000000E+00
(PID.TID 0000.0001) %MON trcstat_ptracer48_mean       =   2.6284899836225E-05
(PID.TID 0000.0001) %MON trcstat_ptracer48_sd         =   1.3780694875415E-04
(PID.TID 0000.0001) %MON trcstat_ptracer48_del2       =   0.0000000000000E+00
(PID.TID 0000.0001) %MON trcstat_ptracer49_max        =   8.8153867181973E-04
(PID.TID 0000.0001) %MON trcstat_ptracer49_min        =   0.0000000000000E+00
(PID.TID 0000.0001) %MON trcstat_ptracer49_mean       =   2.6284899836225E-05
(PID.TID 0000.0001) %MON trcstat_ptracer49_sd         =   1.3780694875415E-04
(PID.TID 0000.0001) %MON trcstat_ptracer49_del2       =   0.0000000000000E+00
(PID.TID 0000.0001) %MON trcstat_ptracer50_max        =   8.8153867181973E-04
(PID.TID 0000.0001) %MON trcstat_ptracer50_min        =   0.0000000000000E+00
(PID.TID 0000.0001) %MON trcstat_ptracer50_mean       =   2.6284899836225E-05
(PID.TID 0000.0001) %MON trcstat_ptracer50_sd         =   1.3780694875415E-04
(PID.TID 0000.0001) %MON trcstat_ptracer50_del2       =   0.0000000000000E+00
(PID.TID 0000.0001) %MON trcstat_ptracer51_max        =   8.8153867181973E-04
(PID.TID 0000.0001) %MON trcstat_ptracer51_min        =   0.0000000000000E+00
(PID.TID 0000.0001) %MON trcstat_ptracer51_mean       =   2.6284899836225E-05
(PID.TID 0000.0001) %MON trcstat_ptracer51_sd         =   1.3780694875415E-04
(PID.TID 0000.0001) %MON trcstat_ptracer51_del2       =   0.0000000000000E+00
(PID.TID 0000.0001) %MON trcstat_ptracer52_max        =   8.8153867181973E-04
(PID.TID 0000.0001) %MON trcstat_ptracer52_min        =   0.0000000000000E+00
(PID.TID 0000.0001) %MON trcstat_ptracer52_mean       =   2.6284899836225E-05
(PID.TID 0000.0001) %MON trcstat_ptracer52_sd         =   1.3780694875415E-04
(PID.TID 0000.0001) %MON trcstat_ptracer52_del2       =   0.0000000000000E+00
(PID.TID 0000.0001) %MON trcstat_ptracer53_max        =   8.8153867181973E-04
(PID.TID 0000.0001) %MON trcstat_ptracer53_min        =   0.0000000000000E+00
(PID.TID 0000.0001) %MON trcstat_ptracer53_mean       =   2.6284899836225E-05
(PID.TID 0000.0001) %MON trcstat_ptracer53_sd         =   1.3780694875415E-04
(PID.TID 0000.0001) %MON trcstat_ptracer53_del2       =   0.0000000000000E+00
(PID.TID 0000.0001) %MON trcstat_ptracer54_max        =   8.8153867181973E-04
(PID.TID 0000.0001) %MON trcstat_ptracer54_min        =   0.0000000000000E+00
(PID.TID 0000.0001) %MON trcstat_ptracer54_mean       =   2.6284899836225E-05
(PID.TID 0000.0001) %MON trcstat_ptracer54_sd         =   1.3780694875415E-04
(PID.TID 0000.0001) %MON trcstat_ptracer54_del2       =   0.0000000000000E+00
(PID.TID 0000.0001) %MON trcstat_ptracer55_max        =   8.8153867181973E-04
(PID.TID 0000.0001) %MON trcstat_ptracer55_min        =   0.0000000000000E+00
(PID.TID 0000.0001) %MON trcstat_ptracer55_mean       =   2.6284899836225E-05
(PID.TID 0000.0001) %MON trcstat_ptracer55_sd         =   1.3780694875415E-04
(PID.TID 0000.0001) %MON trcstat_ptracer55_del2       =   0.0000000000000E+00
(PID.TID 0000.0001) %MON trcstat_ptracer56_max        =   8.8153867181973E-04
(PID.TID 0000.0001) %MON trcstat_ptracer56_min        =   0.0000000000000E+00
(PID.TID 0000.0001) %MON trcstat_ptracer56_mean       =   2.6284899836225E-05
(PID.TID 0000.0001) %MON trcstat_ptracer56_sd         =   1.3780694875415E-04
(PID.TID 0000.0001) %MON trcstat_ptracer56_del2       =   0.0000000000000E+00
(PID.TID 0000.0001) %MON trcstat_ptracer57_max        =   8.8153867181973E-04
(PID.TID 0000.0001) %MON trcstat_ptracer57_min        =   0.0000000000000E+00
(PID.TID 0000.0001) %MON trcstat_ptracer57_mean       =   2.6284899836225E-05
(PID.TID 0000.0001) %MON trcstat_ptracer57_sd         =   1.3780694875415E-04
(PID.TID 0000.0001) %MON trcstat_ptracer57_del2       =   0.0000000000000E+00
(PID.TID 0000.0001) %MON trcstat_ptracer58_max        =   8.8153867181973E-04
(PID.TID 0000.0001) %MON trcstat_ptracer58_min        =   0.0000000000000E+00
(PID.TID 0000.0001) %MON trcstat_ptracer58_mean       =   2.6284899836225E-05
(PID.TID 0000.0001) %MON trcstat_ptracer58_sd         =   1.3780694875415E-04
(PID.TID 0000.0001) %MON trcstat_ptracer58_del2       =   0.0000000000000E+00
(PID.TID 0000.0001) %MON trcstat_ptracer59_max        =   8.8153867181973E-04
(PID.TID 0000.0001) %MON trcstat_ptracer59_min        =   0.0000000000000E+00
(PID.TID 0000.0001) %MON trcstat_ptracer59_mean       =   2.6284899836225E-05
(PID.TID 0000.0001) %MON trcstat_ptracer59_sd         =   1.3780694875415E-04
(PID.TID 0000.0001) %MON trcstat_ptracer59_del2       =   0.0000000000000E+00
(PID.TID 0000.0001) %MON trcstat_ptracer60_max        =   8.8153867181973E-04
(PID.TID 0000.0001) %MON trcstat_ptracer60_min        =   0.0000000000000E+00
(PID.TID 0000.0001) %MON trcstat_ptracer60_mean       =   2.6284899836225E-05
(PID.TID 0000.0001) %MON trcstat_ptracer60_sd         =   1.3780694875415E-04
(PID.TID 0000.0001) %MON trcstat_ptracer60_del2       =   0.0000000000000E+00
(PID.TID 0000.0001) %MON trcstat_ptracer61_max        =   8.8153867181973E-04
(PID.TID 0000.0001) %MON trcstat_ptracer61_min        =   0.0000000000000E+00
(PID.TID 0000.0001) %MON trcstat_ptracer61_mean       =   2.6284899836225E-05
(PID.TID 0000.0001) %MON trcstat_ptracer61_sd         =   1.3780694875415E-04
(PID.TID 0000.0001) %MON trcstat_ptracer61_del2       =   0.0000000000000E+00
(PID.TID 0000.0001) %MON trcstat_ptracer62_max        =   8.8153867181973E-04
(PID.TID 0000.0001) %MON trcstat_ptracer62_min        =   0.0000000000000E+00
(PID.TID 0000.0001) %MON trcstat_ptracer62_mean       =   2.6284899836225E-05
(PID.TID 0000.0001) %MON trcstat_ptracer62_sd         =   1.3780694875415E-04
(PID.TID 0000.0001) %MON trcstat_ptracer62_del2       =   0.0000000000000E+00
(PID.TID 0000.0001) %MON trcstat_ptracer63_max        =   8.8153867181973E-04
(PID.TID 0000.0001) %MON trcstat_ptracer63_min        =   0.0000000000000E+00
(PID.TID 0000.0001) %MON trcstat_ptracer63_mean       =   2.6284899836225E-05
(PID.TID 0000.0001) %MON trcstat_ptracer63_sd         =   1.3780694875415E-04
(PID.TID 0000.0001) %MON trcstat_ptracer63_del2       =   0.0000000000000E+00
(PID.TID 0000.0001) %MON trcstat_ptracer64_max        =   8.8153867181973E-04
(PID.TID 0000.0001) %MON trcstat_ptracer64_min        =   0.0000000000000E+00
(PID.TID 0000.0001) %MON trcstat_ptracer64_mean       =   2.6284899836225E-05
(PID.TID 0000.0001) %MON trcstat_ptracer64_sd         =   1.3780694875415E-04
(PID.TID 0000.0001) %MON trcstat_ptracer64_del2       =   0.0000000000000E+00
(PID.TID 0000.0001) %MON trcstat_ptracer65_max        =   8.8153867181973E-04
(PID.TID 0000.0001) %MON trcstat_ptracer65_min        =   0.0000000000000E+00
(PID.TID 0000.0001) %MON trcstat_ptracer65_mean       =   2.6284899836225E-05
(PID.TID 0000.0001) %MON trcstat_ptracer65_sd         =   1.3780694875415E-04
(PID.TID 0000.0001) %MON trcstat_ptracer65_del2       =   0.0000000000000E+00
(PID.TID 0000.0001) %MON trcstat_ptracer66_max        =   8.8153867181973E-04
(PID.TID 0000.0001) %MON trcstat_ptracer66_min        =   0.0000000000000E+00
(PID.TID 0000.0001) %MON trcstat_ptracer66_mean       =   2.6284899836225E-05
(PID.TID 0000.0001) %MON trcstat_ptracer66_sd         =   1.3780694875415E-04
(PID.TID 0000.0001) %MON trcstat_ptracer66_del2       =   0.0000000000000E+00
(PID.TID 0000.0001) %MON trcstat_ptracer67_max        =   8.8153867181973E-04
(PID.TID 0000.0001) %MON trcstat_ptracer67_min        =   0.0000000000000E+00
(PID.TID 0000.0001) %MON trcstat_ptracer67_mean       =   2.6284899836225E-05
(PID.TID 0000.0001) %MON trcstat_ptracer67_sd         =   1.3780694875415E-04
(PID.TID 0000.0001) %MON trcstat_ptracer67_del2       =   0.0000000000000E+00
(PID.TID 0000.0001) %MON trcstat_ptracer68_max        =   8.8153867181973E-04
(PID.TID 0000.0001) %MON trcstat_ptracer68_min        =   0.0000000000000E+00
(PID.TID 0000.0001) %MON trcstat_ptracer68_mean       =   2.6284899836225E-05
(PID.TID 0000.0001) %MON trcstat_ptracer68_sd         =   1.3780694875415E-04
(PID.TID 0000.0001) %MON trcstat_ptracer68_del2       =   0.0000000000000E+00
(PID.TID 0000.0001) %MON trcstat_ptracer69_max        =   8.8153867181973E-04
(PID.TID 0000.0001) %MON trcstat_ptracer69_min        =   0.0000000000000E+00
(PID.TID 0000.0001) %MON trcstat_ptracer69_mean       =   2.6284899836225E-05
(PID.TID 0000.0001) %MON trcstat_ptracer69_sd         =   1.3780694875415E-04
(PID.TID 0000.0001) %MON trcstat_ptracer69_del2       =   0.0000000000000E+00
(PID.TID 0000.0001) %MON trcstat_ptracer70_max        =   8.8153867181973E-04
(PID.TID 0000.0001) %MON trcstat_ptracer70_min        =   0.0000000000000E+00
(PID.TID 0000.0001) %MON trcstat_ptracer70_mean       =   2.6284899836225E-05
(PID.TID 0000.0001) %MON trcstat_ptracer70_sd         =   1.3780694875415E-04
(PID.TID 0000.0001) %MON trcstat_ptracer70_del2       =   0.0000000000000E+00
(PID.TID 0000.0001) %MON trcstat_ptracer71_max        =   8.8153867181973E-04
(PID.TID 0000.0001) %MON trcstat_ptracer71_min        =   0.0000000000000E+00
(PID.TID 0000.0001) %MON trcstat_ptracer71_mean       =   2.6284899836225E-05
(PID.TID 0000.0001) %MON trcstat_ptracer71_sd         =   1.3780694875415E-04
(PID.TID 0000.0001) %MON trcstat_ptracer71_del2       =   0.0000000000000E+00
(PID.TID 0000.0001) %MON trcstat_ptracer72_max        =   8.8153867181973E-04
(PID.TID 0000.0001) %MON trcstat_ptracer72_min        =   0.0000000000000E+00
(PID.TID 0000.0001) %MON trcstat_ptracer72_mean       =   2.6284899836225E-05
(PID.TID 0000.0001) %MON trcstat_ptracer72_sd         =   1.3780694875415E-04
(PID.TID 0000.0001) %MON trcstat_ptracer72_del2       =   0.0000000000000E+00
(PID.TID 0000.0001) %MON trcstat_ptracer73_max        =   8.8153867181973E-04
(PID.TID 0000.0001) %MON trcstat_ptracer73_min        =   0.0000000000000E+00
(PID.TID 0000.0001) %MON trcstat_ptracer73_mean       =   2.6284899836225E-05
(PID.TID 0000.0001) %MON trcstat_ptracer73_sd         =   1.3780694875415E-04
(PID.TID 0000.0001) %MON trcstat_ptracer73_del2       =   0.0000000000000E+00
(PID.TID 0000.0001) %MON trcstat_ptracer74_max        =   8.8153867181973E-04
(PID.TID 0000.0001) %MON trcstat_ptracer74_min        =   0.0000000000000E+00
(PID.TID 0000.0001) %MON trcstat_ptracer74_mean       =   2.6284899836225E-05
(PID.TID 0000.0001) %MON trcstat_ptracer74_sd         =   1.3780694875415E-04
(PID.TID 0000.0001) %MON trcstat_ptracer74_del2       =   0.0000000000000E+00
(PID.TID 0000.0001) %MON trcstat_ptracer75_max        =   8.8153867181973E-04
(PID.TID 0000.0001) %MON trcstat_ptracer75_min        =   0.0000000000000E+00
(PID.TID 0000.0001) %MON trcstat_ptracer75_mean       =   2.6284899836225E-05
(PID.TID 0000.0001) %MON trcstat_ptracer75_sd         =   1.3780694875415E-04
(PID.TID 0000.0001) %MON trcstat_ptracer75_del2       =   0.0000000000000E+00
(PID.TID 0000.0001) %MON trcstat_ptracer76_max        =   8.8153867181973E-04
(PID.TID 0000.0001) %MON trcstat_ptracer76_min        =   0.0000000000000E+00
(PID.TID 0000.0001) %MON trcstat_ptracer76_mean       =   2.6284899836225E-05
(PID.TID 0000.0001) %MON trcstat_ptracer76_sd         =   1.3780694875415E-04
(PID.TID 0000.0001) %MON trcstat_ptracer76_del2       =   0.0000000000000E+00
(PID.TID 0000.0001) %MON trcstat_ptracer77_max        =   8.8153867181973E-04
(PID.TID 0000.0001) %MON trcstat_ptracer77_min        =   0.0000000000000E+00
(PID.TID 0000.0001) %MON trcstat_ptracer77_mean       =   2.6284899836225E-05
(PID.TID 0000.0001) %MON trcstat_ptracer77_sd         =   1.3780694875415E-04
(PID.TID 0000.0001) %MON trcstat_ptracer77_del2       =   0.0000000000000E+00
(PID.TID 0000.0001) %MON trcstat_ptracer78_max        =   8.8153867181973E-04
(PID.TID 0000.0001) %MON trcstat_ptracer78_min        =   0.0000000000000E+00
(PID.TID 0000.0001) %MON trcstat_ptracer78_mean       =   2.6284899836225E-05
(PID.TID 0000.0001) %MON trcstat_ptracer78_sd         =   1.3780694875415E-04
(PID.TID 0000.0001) %MON trcstat_ptracer78_del2       =   0.0000000000000E+00
(PID.TID 0000.0001) %MON trcstat_ptracer79_max        =   8.8153867181973E-04
(PID.TID 0000.0001) %MON trcstat_ptracer79_min        =   0.0000000000000E+00
(PID.TID 0000.0001) %MON trcstat_ptracer79_mean       =   2.6284899836225E-05
(PID.TID 0000.0001) %MON trcstat_ptracer79_sd         =   1.3780694875415E-04
(PID.TID 0000.0001) %MON trcstat_ptracer79_del2       =   0.0000000000000E+00
(PID.TID 0000.0001) %MON trcstat_ptracer80_max        =   8.8153867181973E-04
(PID.TID 0000.0001) %MON trcstat_ptracer80_min        =   0.0000000000000E+00
(PID.TID 0000.0001) %MON trcstat_ptracer80_mean       =   2.6284899836225E-05
(PID.TID 0000.0001) %MON trcstat_ptracer80_sd         =   1.3780694875415E-04
(PID.TID 0000.0001) %MON trcstat_ptracer80_del2       =   0.0000000000000E+00
(PID.TID 0000.0001) %MON trcstat_ptracer81_max        =   8.8153867181973E-04
(PID.TID 0000.0001) %MON trcstat_ptracer81_min        =   0.0000000000000E+00
(PID.TID 0000.0001) %MON trcstat_ptracer81_mean       =   2.6284899836225E-05
(PID.TID 0000.0001) %MON trcstat_ptracer81_sd         =   1.3780694875415E-04
(PID.TID 0000.0001) %MON trcstat_ptracer81_del2       =   0.0000000000000E+00
(PID.TID 0000.0001) %MON trcstat_ptracer82_max        =   8.8153867181973E-04
(PID.TID 0000.0001) %MON trcstat_ptracer82_min        =   0.0000000000000E+00
(PID.TID 0000.0001) %MON trcstat_ptracer82_mean       =   2.6284899836225E-05
(PID.TID 0000.0001) %MON trcstat_ptracer82_sd         =   1.3780694875415E-04
(PID.TID 0000.0001) %MON trcstat_ptracer82_del2       =   0.0000000000000E+00
(PID.TID 0000.0001) %MON trcstat_ptracer83_max        =   8.8153867181973E-04
(PID.TID 0000.0001) %MON trcstat_ptracer83_min        =   0.0000000000000E+00
(PID.TID 0000.0001) %MON trcstat_ptracer83_mean       =   2.6284899836225E-05
(PID.TID 0000.0001) %MON trcstat_ptracer83_sd         =   1.3780694875415E-04
(PID.TID 0000.0001) %MON trcstat_ptracer83_del2       =   0.0000000000000E+00
(PID.TID 0000.0001) %MON trcstat_ptracer84_max        =   8.8153867181973E-04
(PID.TID 0000.0001) %MON trcstat_ptracer84_min        =   0.0000000000000E+00
(PID.TID 0000.0001) %MON trcstat_ptracer84_mean       =   2.6284899836225E-05
(PID.TID 0000.0001) %MON trcstat_ptracer84_sd         =   1.3780694875415E-04
(PID.TID 0000.0001) %MON trcstat_ptracer84_del2       =   0.0000000000000E+00
(PID.TID 0000.0001) %MON trcstat_ptracer85_max        =   8.8153867181973E-04
(PID.TID 0000.0001) %MON trcstat_ptracer85_min        =   0.0000000000000E+00
(PID.TID 0000.0001) %MON trcstat_ptracer85_mean       =   2.6284899836225E-05
(PID.TID 0000.0001) %MON trcstat_ptracer85_sd         =   1.3780694875415E-04
(PID.TID 0000.0001) %MON trcstat_ptracer85_del2       =   0.0000000000000E+00
(PID.TID 0000.0001) %MON trcstat_ptracer86_max        =   8.8153867181973E-04
(PID.TID 0000.0001) %MON trcstat_ptracer86_min        =   0.0000000000000E+00
(PID.TID 0000.0001) %MON trcstat_ptracer86_mean       =   2.6284899836225E-05
(PID.TID 0000.0001) %MON trcstat_ptracer86_sd         =   1.3780694875415E-04
(PID.TID 0000.0001) %MON trcstat_ptracer86_del2       =   0.0000000000000E+00
(PID.TID 0000.0001) %MON trcstat_ptracer87_max        =   8.8153867181973E-04
(PID.TID 0000.0001) %MON trcstat_ptracer87_min        =   0.0000000000000E+00
(PID.TID 0000.0001) %MON trcstat_ptracer87_mean       =   2.6284899836225E-05
(PID.TID 0000.0001) %MON trcstat_ptracer87_sd         =   1.3780694875415E-04
(PID.TID 0000.0001) %MON trcstat_ptracer87_del2       =   0.0000000000000E+00
(PID.TID 0000.0001) %MON trcstat_ptracer88_max        =   8.8153867181973E-04
(PID.TID 0000.0001) %MON trcstat_ptracer88_min        =   0.0000000000000E+00
(PID.TID 0000.0001) %MON trcstat_ptracer88_mean       =   2.6284899836225E-05
(PID.TID 0000.0001) %MON trcstat_ptracer88_sd         =   1.3780694875415E-04
(PID.TID 0000.0001) %MON trcstat_ptracer88_del2       =   0.0000000000000E+00
(PID.TID 0000.0001) %MON trcstat_ptracer89_max        =   8.8153867181973E-04
(PID.TID 0000.0001) %MON trcstat_ptracer89_min        =   0.0000000000000E+00
(PID.TID 0000.0001) %MON trcstat_ptracer89_mean       =   2.6284899836225E-05
(PID.TID 0000.0001) %MON trcstat_ptracer89_sd         =   1.3780694875415E-04
(PID.TID 0000.0001) %MON trcstat_ptracer89_del2       =   0.0000000000000E+00
(PID.TID 0000.0001) %MON trcstat_ptracer90_max        =   8.8153867181973E-04
(PID.TID 0000.0001) %MON trcstat_ptracer90_min        =   0.0000000000000E+00
(PID.TID 0000.0001) %MON trcstat_ptracer90_mean       =   2.6284899836225E-05
(PID.TID 0000.0001) %MON trcstat_ptracer90_sd         =   1.3780694875415E-04
(PID.TID 0000.0001) %MON trcstat_ptracer90_del2       =   0.0000000000000E+00
(PID.TID 0000.0001) %MON trcstat_ptracer91_max        =   8.8153867181973E-04
(PID.TID 0000.0001) %MON trcstat_ptracer91_min        =   0.0000000000000E+00
(PID.TID 0000.0001) %MON trcstat_ptracer91_mean       =   2.6284899836225E-05
(PID.TID 0000.0001) %MON trcstat_ptracer91_sd         =   1.3780694875415E-04
(PID.TID 0000.0001) %MON trcstat_ptracer91_del2       =   0.0000000000000E+00
(PID.TID 0000.0001) %MON trcstat_ptracer92_max        =   8.8153867181973E-04
(PID.TID 0000.0001) %MON trcstat_ptracer92_min        =   0.0000000000000E+00
(PID.TID 0000.0001) %MON trcstat_ptracer92_mean       =   2.6284899836225E-05
(PID.TID 0000.0001) %MON trcstat_ptracer92_sd         =   1.3780694875415E-04
(PID.TID 0000.0001) %MON trcstat_ptracer92_del2       =   0.0000000000000E+00
(PID.TID 0000.0001) %MON trcstat_ptracer93_max        =   8.8153867181973E-04
(PID.TID 0000.0001) %MON trcstat_ptracer93_min        =   0.0000000000000E+00
(PID.TID 0000.0001) %MON trcstat_ptracer93_mean       =   2.6284899836225E-05
(PID.TID 0000.0001) %MON trcstat_ptracer93_sd         =   1.3780694875415E-04
(PID.TID 0000.0001) %MON trcstat_ptracer93_del2       =   0.0000000000000E+00
(PID.TID 0000.0001) %MON trcstat_ptracer94_max        =   8.8153867181973E-04
(PID.TID 0000.0001) %MON trcstat_ptracer94_min        =   0.0000000000000E+00
(PID.TID 0000.0001) %MON trcstat_ptracer94_mean       =   2.6284899836225E-05
(PID.TID 0000.0001) %MON trcstat_ptracer94_sd         =   1.3780694875415E-04
(PID.TID 0000.0001) %MON trcstat_ptracer94_del2       =   0.0000000000000E+00
(PID.TID 0000.0001) %MON trcstat_ptracer95_max        =   8.8153867181973E-04
(PID.TID 0000.0001) %MON trcstat_ptracer95_min        =   0.0000000000000E+00
(PID.TID 0000.0001) %MON trcstat_ptracer95_mean       =   2.6284899836225E-05
(PID.TID 0000.0001) %MON trcstat_ptracer95_sd         =   1.3780694875415E-04
(PID.TID 0000.0001) %MON trcstat_ptracer95_del2       =   0.0000000000000E+00
(PID.TID 0000.0001) %MON trcstat_ptracer96_max        =   8.8153867181973E-04
(PID.TID 0000.0001) %MON trcstat_ptracer96_min        =   0.0000000000000E+00
(PID.TID 0000.0001) %MON trcstat_ptracer96_mean       =   2.6284899836225E-05
(PID.TID 0000.0001) %MON trcstat_ptracer96_sd         =   1.3780694875415E-04
(PID.TID 0000.0001) %MON trcstat_ptracer96_del2       =   0.0000000000000E+00
(PID.TID 0000.0001) %MON trcstat_ptracer97_max        =   1.2432850748922E-07
(PID.TID 0000.0001) %MON trcstat_ptracer97_min        =   0.0000000000000E+00
(PID.TID 0000.0001) %MON trcstat_ptracer97_mean       =   1.6442399905700E-08
(PID.TID 0000.0001) %MON trcstat_ptracer97_sd         =   3.0074086738691E-08
(PID.TID 0000.0001) %MON trcstat_ptracer97_del2       =   0.0000000000000E+00
(PID.TID 0000.0001) %MON trcstat_ptracer98_max        =   1.2432850748922E-07
(PID.TID 0000.0001) %MON trcstat_ptracer98_min        =   0.0000000000000E+00
(PID.TID 0000.0001) %MON trcstat_ptracer98_mean       =   1.6442399905700E-08
(PID.TID 0000.0001) %MON trcstat_ptracer98_sd         =   3.0074086738691E-08
(PID.TID 0000.0001) %MON trcstat_ptracer98_del2       =   0.0000000000000E+00
(PID.TID 0000.0001) // =======================================================
(PID.TID 0000.0001) // End MONITOR ptracers field statistics
(PID.TID 0000.0001) // =======================================================
(PID.TID 0000.0001) // =======================================================
(PID.TID 0000.0001) // Begin MONITOR EXF statistics
(PID.TID 0000.0001) // =======================================================
(PID.TID 0000.0001) %MON exf_tsnumber                 =                     0
(PID.TID 0000.0001) %MON exf_time_sec                 =   0.0000000000000E+00
(PID.TID 0000.0001) %MON exf_ustress_max              =   0.0000000000000E+00
(PID.TID 0000.0001) %MON exf_ustress_min              =   0.0000000000000E+00
(PID.TID 0000.0001) %MON exf_ustress_mean             =   0.0000000000000E+00
(PID.TID 0000.0001) %MON exf_ustress_sd               =   0.0000000000000E+00
(PID.TID 0000.0001) %MON exf_ustress_del2             =   0.0000000000000E+00
(PID.TID 0000.0001) %MON exf_vstress_max              =   0.0000000000000E+00
(PID.TID 0000.0001) %MON exf_vstress_min              =   0.0000000000000E+00
(PID.TID 0000.0001) %MON exf_vstress_mean             =   0.0000000000000E+00
(PID.TID 0000.0001) %MON exf_vstress_sd               =   0.0000000000000E+00
(PID.TID 0000.0001) %MON exf_vstress_del2             =   0.0000000000000E+00
(PID.TID 0000.0001) %MON exf_hflux_max                =   0.0000000000000E+00
(PID.TID 0000.0001) %MON exf_hflux_min                =   0.0000000000000E+00
(PID.TID 0000.0001) %MON exf_hflux_mean               =   0.0000000000000E+00
(PID.TID 0000.0001) %MON exf_hflux_sd                 =   0.0000000000000E+00
(PID.TID 0000.0001) %MON exf_hflux_del2               =   0.0000000000000E+00
(PID.TID 0000.0001) %MON exf_sflux_max                =   0.0000000000000E+00
(PID.TID 0000.0001) %MON exf_sflux_min                =   0.0000000000000E+00
(PID.TID 0000.0001) %MON exf_sflux_mean               =   0.0000000000000E+00
(PID.TID 0000.0001) %MON exf_sflux_sd                 =   0.0000000000000E+00
(PID.TID 0000.0001) %MON exf_sflux_del2               =   0.0000000000000E+00
(PID.TID 0000.0001) %MON exf_uwind_max                =   0.0000000000000E+00
(PID.TID 0000.0001) %MON exf_uwind_min                =   0.0000000000000E+00
(PID.TID 0000.0001) %MON exf_uwind_mean               =   0.0000000000000E+00
(PID.TID 0000.0001) %MON exf_uwind_sd                 =   0.0000000000000E+00
(PID.TID 0000.0001) %MON exf_uwind_del2               =   0.0000000000000E+00
(PID.TID 0000.0001) %MON exf_vwind_max                =   0.0000000000000E+00
(PID.TID 0000.0001) %MON exf_vwind_min                =   0.0000000000000E+00
(PID.TID 0000.0001) %MON exf_vwind_mean               =   0.0000000000000E+00
(PID.TID 0000.0001) %MON exf_vwind_sd                 =   0.0000000000000E+00
(PID.TID 0000.0001) %MON exf_vwind_del2               =   0.0000000000000E+00
(PID.TID 0000.0001) %MON exf_wspeed_max               =   0.0000000000000E+00
(PID.TID 0000.0001) %MON exf_wspeed_min               =   0.0000000000000E+00
(PID.TID 0000.0001) %MON exf_wspeed_mean              =   0.0000000000000E+00
(PID.TID 0000.0001) %MON exf_wspeed_sd                =   0.0000000000000E+00
(PID.TID 0000.0001) %MON exf_wspeed_del2              =   0.0000000000000E+00
(PID.TID 0000.0001) %MON exf_evap_max                 =   0.0000000000000E+00
(PID.TID 0000.0001) %MON exf_evap_min                 =   0.0000000000000E+00
(PID.TID 0000.0001) %MON exf_evap_mean                =   0.0000000000000E+00
(PID.TID 0000.0001) %MON exf_evap_sd                  =   0.0000000000000E+00
(PID.TID 0000.0001) %MON exf_evap_del2                =   0.0000000000000E+00
(PID.TID 0000.0001) // =======================================================
(PID.TID 0000.0001) // End MONITOR EXF statistics
(PID.TID 0000.0001) // =======================================================
 EXTERNAL_FIELDS_LOAD, it=         0 : Reading new data, i0,i1=   12    1 (prev=   12    0 )
(PID.TID 0000.0001)  MDS_READ_FIELD: opening global file: ../input/input/loc1_temp_monsurf.bin
(PID.TID 0000.0001)  MDS_READ_FIELD: opening global file: ../input/input/loc1_temp_monsurf.bin
(PID.TID 0000.0001) // =======================================================
(PID.TID 0000.0001) // Begin MONITOR GUD statistics
(PID.TID 0000.0001) // =======================================================
(PID.TID 0000.0001) %MON gud_tsnumber                 =                     0
(PID.TID 0000.0001) %MON gud_time_sec                 =   0.0000000000000E+00
(PID.TID 0000.0001) %MON gud_OASIMEd01_max            =   5.1479113101959E+00
(PID.TID 0000.0001) %MON gud_OASIMEd01_min            =   5.1479113101959E+00
(PID.TID 0000.0001) %MON gud_OASIMEd01_mean           =   5.1479113101959E+00
(PID.TID 0000.0001) %MON gud_OASIMEd01_sd             =   0.0000000000000E+00
(PID.TID 0000.0001) %MON gud_OASIMEd01_del2           =   1.4560491985546E+01
(PID.TID 0000.0001) %MON gud_OASIMEd02_max            =   6.6247568130493E+00
(PID.TID 0000.0001) %MON gud_OASIMEd02_min            =   6.6247568130493E+00
(PID.TID 0000.0001) %MON gud_OASIMEd02_mean           =   6.6247568130493E+00
(PID.TID 0000.0001) %MON gud_OASIMEd02_sd             =   0.0000000000000E+00
(PID.TID 0000.0001) %MON gud_OASIMEd02_del2           =   1.8737641864876E+01
(PID.TID 0000.0001) %MON gud_OASIMEd03_max            =   8.0732395648956E+00
(PID.TID 0000.0001) %MON gud_OASIMEd03_min            =   8.0732395648956E+00
(PID.TID 0000.0001) %MON gud_OASIMEd03_mean           =   8.0732395648956E+00
(PID.TID 0000.0001) %MON gud_OASIMEd03_sd             =   0.0000000000000E+00
(PID.TID 0000.0001) %MON gud_OASIMEd03_del2           =   2.2834569769925E+01
(PID.TID 0000.0001) %MON gud_OASIMEd04_max            =   8.5075433254242E+00
(PID.TID 0000.0001) %MON gud_OASIMEd04_min            =   8.5075433254242E+00
(PID.TID 0000.0001) %MON gud_OASIMEd04_mean           =   8.5075433254242E+00
(PID.TID 0000.0001) %MON gud_OASIMEd04_sd             =   0.0000000000000E+00
(PID.TID 0000.0001) %MON gud_OASIMEd04_del2           =   2.4062966306583E+01
(PID.TID 0000.0001) %MON gud_OASIMEd05_max            =   8.5161354541779E+00
(PID.TID 0000.0001) %MON gud_OASIMEd05_min            =   8.5161354541779E+00
(PID.TID 0000.0001) %MON gud_OASIMEd05_mean           =   8.5161354541779E+00
(PID.TID 0000.0001) %MON gud_OASIMEd05_sd             =   0.0000000000000E+00
(PID.TID 0000.0001) %MON gud_OASIMEd05_del2           =   2.4087268516609E+01
(PID.TID 0000.0001) %MON gud_OASIMEd06_max            =   8.3519830703735E+00
(PID.TID 0000.0001) %MON gud_OASIMEd06_min            =   8.3519830703735E+00
(PID.TID 0000.0001) %MON gud_OASIMEd06_mean           =   8.3519830703735E+00
(PID.TID 0000.0001) %MON gud_OASIMEd06_sd             =   0.0000000000000E+00
(PID.TID 0000.0001) %MON gud_OASIMEd06_del2           =   2.3622975461665E+01
(PID.TID 0000.0001) %MON gud_OASIMEd07_max            =   8.4486072063446E+00
(PID.TID 0000.0001) %MON gud_OASIMEd07_min            =   8.4486072063446E+00
(PID.TID 0000.0001) %MON gud_OASIMEd07_mean           =   8.4486072063446E+00
(PID.TID 0000.0001) %MON gud_OASIMEd07_sd             =   0.0000000000000E+00
(PID.TID 0000.0001) %MON gud_OASIMEd07_del2           =   2.3896269788751E+01
(PID.TID 0000.0001) %MON gud_OASIMEd08_max            =   8.3182427883148E+00
(PID.TID 0000.0001) %MON gud_OASIMEd08_min            =   8.3182427883148E+00
(PID.TID 0000.0001) %MON gud_OASIMEd08_mean           =   8.3182427883148E+00
(PID.TID 0000.0001) %MON gud_OASIMEd08_sd             =   0.0000000000000E+00
(PID.TID 0000.0001) %MON gud_OASIMEd08_del2           =   2.3527543532694E+01
(PID.TID 0000.0001) %MON gud_OASIMEd09_max            =   7.8892357349396E+00
(PID.TID 0000.0001) %MON gud_OASIMEd09_min            =   7.8892357349396E+00
(PID.TID 0000.0001) %MON gud_OASIMEd09_mean           =   7.8892357349396E+00
(PID.TID 0000.0001) %MON gud_OASIMEd09_sd             =   0.0000000000000E+00
(PID.TID 0000.0001) %MON gud_OASIMEd09_del2           =   2.2314128346220E+01
(PID.TID 0000.0001) %MON gud_OASIMEd10_max            =   7.8253405094147E+00
(PID.TID 0000.0001) %MON gud_OASIMEd10_min            =   7.8253405094147E+00
(PID.TID 0000.0001) %MON gud_OASIMEd10_mean           =   7.8253405094147E+00
(PID.TID 0000.0001) %MON gud_OASIMEd10_sd             =   0.0000000000000E+00
(PID.TID 0000.0001) %MON gud_OASIMEd10_del2           =   2.2133405357204E+01
(PID.TID 0000.0001) %MON gud_OASIMEd11_max            =   7.3955733776093E+00
(PID.TID 0000.0001) %MON gud_OASIMEd11_min            =   7.3955733776093E+00
(PID.TID 0000.0001) %MON gud_OASIMEd11_mean           =   7.3955733776093E+00
(PID.TID 0000.0001) %MON gud_OASIMEd11_sd             =   0.0000000000000E+00
(PID.TID 0000.0001) %MON gud_OASIMEd11_del2           =   2.0917840344281E+01
(PID.TID 0000.0001) %MON gud_OASIMEd12_max            =   6.7436313629150E+00
(PID.TID 0000.0001) %MON gud_OASIMEd12_min            =   6.7436313629150E+00
(PID.TID 0000.0001) %MON gud_OASIMEd12_mean           =   6.7436313629150E+00
(PID.TID 0000.0001) %MON gud_OASIMEd12_sd             =   0.0000000000000E+00
(PID.TID 0000.0001) %MON gud_OASIMEd12_del2           =   1.9073869866158E+01
(PID.TID 0000.0001) %MON gud_OASIMEd13_max            =   3.3235081434250E+00
(PID.TID 0000.0001) %MON gud_OASIMEd13_min            =   3.3235081434250E+00
(PID.TID 0000.0001) %MON gud_OASIMEd13_mean           =   3.3235081434250E+00
(PID.TID 0000.0001) %MON gud_OASIMEd13_sd             =   4.4408920985006E-16
(PID.TID 0000.0001) %MON gud_OASIMEd13_del2           =   9.4003005821781E+00
(PID.TID 0000.0001) %MON gud_OASIMEs01_max            =   3.8728317022324E+00
(PID.TID 0000.0001) %MON gud_OASIMEs01_min            =   3.8728317022324E+00
(PID.TID 0000.0001) %MON gud_OASIMEs01_mean           =   3.8728317022324E+00
(PID.TID 0000.0001) %MON gud_OASIMEs01_sd             =   0.0000000000000E+00
(PID.TID 0000.0001) %MON gud_OASIMEs01_del2           =   1.0954022236171E+01
(PID.TID 0000.0001) %MON gud_OASIMEs02_max            =   4.4540216922760E+00
(PID.TID 0000.0001) %MON gud_OASIMEs02_min            =   4.4540216922760E+00
(PID.TID 0000.0001) %MON gud_OASIMEs02_mean           =   4.4540216922760E+00
(PID.TID 0000.0001) %MON gud_OASIMEs02_sd             =   0.0000000000000E+00
(PID.TID 0000.0001) %MON gud_OASIMEs02_del2           =   1.2597875768641E+01
(PID.TID 0000.0001) %MON gud_OASIMEs03_max            =   5.0482072830200E+00
(PID.TID 0000.0001) %MON gud_OASIMEs03_min            =   5.0482072830200E+00
(PID.TID 0000.0001) %MON gud_OASIMEs03_mean           =   5.0482072830200E+00
(PID.TID 0000.0001) %MON gud_OASIMEs03_sd             =   0.0000000000000E+00
(PID.TID 0000.0001) %MON gud_OASIMEs03_del2           =   1.4278486410635E+01
(PID.TID 0000.0001) %MON gud_OASIMEs04_max            =   4.9460418224335E+00
(PID.TID 0000.0001) %MON gud_OASIMEs04_min            =   4.9460418224335E+00
(PID.TID 0000.0001) %MON gud_OASIMEs04_mean           =   4.9460418224335E+00
(PID.TID 0000.0001) %MON gud_OASIMEs04_sd             =   0.0000000000000E+00
(PID.TID 0000.0001) %MON gud_OASIMEs04_del2           =   1.3989518850700E+01
(PID.TID 0000.0001) %MON gud_OASIMEs05_max            =   4.6630649566650E+00
(PID.TID 0000.0001) %MON gud_OASIMEs05_min            =   4.6630649566650E+00
(PID.TID 0000.0001) %MON gud_OASIMEs05_mean           =   4.6630649566650E+00
(PID.TID 0000.0001) %MON gud_OASIMEs05_sd             =   0.0000000000000E+00
(PID.TID 0000.0001) %MON gud_OASIMEs05_del2           =   1.3189139407885E+01
(PID.TID 0000.0001) %MON gud_OASIMEs06_max            =   4.3368896245956E+00
(PID.TID 0000.0001) %MON gud_OASIMEs06_min            =   4.3368896245956E+00
(PID.TID 0000.0001) %MON gud_OASIMEs06_mean           =   4.3368896245956E+00
(PID.TID 0000.0001) %MON gud_OASIMEs06_sd             =   0.0000000000000E+00
(PID.TID 0000.0001) %MON gud_OASIMEs06_del2           =   1.2266576251237E+01
(PID.TID 0000.0001) %MON gud_OASIMEs07_max            =   4.2126188278198E+00
(PID.TID 0000.0001) %MON gud_OASIMEs07_min            =   4.2126188278198E+00
(PID.TID 0000.0001) %MON gud_OASIMEs07_mean           =   4.2126188278198E+00
(PID.TID 0000.0001) %MON gud_OASIMEs07_sd             =   0.0000000000000E+00
(PID.TID 0000.0001) %MON gud_OASIMEs07_del2           =   1.1915085358822E+01
(PID.TID 0000.0001) %MON gud_OASIMEs08_max            =   4.0433905124664E+00
(PID.TID 0000.0001) %MON gud_OASIMEs08_min            =   4.0433905124664E+00
(PID.TID 0000.0001) %MON gud_OASIMEs08_mean           =   4.0433905124664E+00
(PID.TID 0000.0001) %MON gud_OASIMEs08_sd             =   0.0000000000000E+00
(PID.TID 0000.0001) %MON gud_OASIMEs08_del2           =   1.1436435401401E+01
(PID.TID 0000.0001) %MON gud_OASIMEs09_max            =   3.7322288751602E+00
(PID.TID 0000.0001) %MON gud_OASIMEs09_min            =   3.7322288751602E+00
(PID.TID 0000.0001) %MON gud_OASIMEs09_mean           =   3.7322288751602E+00
(PID.TID 0000.0001) %MON gud_OASIMEs09_sd             =   0.0000000000000E+00
(PID.TID 0000.0001) %MON gud_OASIMEs09_del2           =   1.0556337386264E+01
(PID.TID 0000.0001) %MON gud_OASIMEs10_max            =   3.6368581056595E+00
(PID.TID 0000.0001) %MON gud_OASIMEs10_min            =   3.6368581056595E+00
(PID.TID 0000.0001) %MON gud_OASIMEs10_mean           =   3.6368581056595E+00
(PID.TID 0000.0001) %MON gud_OASIMEs10_sd             =   0.0000000000000E+00
(PID.TID 0000.0001) %MON gud_OASIMEs10_del2           =   1.0286588114900E+01
(PID.TID 0000.0001) %MON gud_OASIMEs11_max            =   3.4224590063095E+00
(PID.TID 0000.0001) %MON gud_OASIMEs11_min            =   3.4224590063095E+00
(PID.TID 0000.0001) %MON gud_OASIMEs11_mean           =   3.4224590063095E+00
(PID.TID 0000.0001) %MON gud_OASIMEs11_sd             =   0.0000000000000E+00
(PID.TID 0000.0001) %MON gud_OASIMEs11_del2           =   9.6801758867777E+00
(PID.TID 0000.0001) %MON gud_OASIMEs12_max            =   3.0634193420410E+00
(PID.TID 0000.0001) %MON gud_OASIMEs12_min            =   3.0634193420410E+00
(PID.TID 0000.0001) %MON gud_OASIMEs12_mean           =   3.0634193420410E+00
(PID.TID 0000.0001) %MON gud_OASIMEs12_sd             =   0.0000000000000E+00
(PID.TID 0000.0001) %MON gud_OASIMEs12_del2           =   8.6646583615009E+00
(PID.TID 0000.0001) %MON gud_OASIMEs13_max            =   1.5072223544121E+00
(PID.TID 0000.0001) %MON gud_OASIMEs13_min            =   1.5072223544121E+00
(PID.TID 0000.0001) %MON gud_OASIMEs13_mean           =   1.5072223544121E+00
(PID.TID 0000.0001) %MON gud_OASIMEs13_sd             =   2.2204460492503E-16
(PID.TID 0000.0001) %MON gud_OASIMEs13_del2           =   4.2630685902429E+00
(PID.TID 0000.0001) %MON gud_surfPAR_max              =   0.0000000000000E+00
(PID.TID 0000.0001) %MON gud_surfPAR_min              =   0.0000000000000E+00
(PID.TID 0000.0001) %MON gud_surfPAR_mean             =   0.0000000000000E+00
(PID.TID 0000.0001) %MON gud_surfPAR_sd               =   0.0000000000000E+00
(PID.TID 0000.0001) %MON gud_surfPAR_del2             =   0.0000000000000E+00
(PID.TID 0000.0001) %MON gud_inputFe_max              =   9.9999999600420E-09
(PID.TID 0000.0001) %MON gud_inputFe_min              =   9.9999999600420E-09
(PID.TID 0000.0001) %MON gud_inputFe_mean             =   9.9999999600420E-09
(PID.TID 0000.0001) %MON gud_inputFe_sd               =   0.0000000000000E+00
(PID.TID 0000.0001) %MON gud_inputFe_del2             =   2.8284271134444E-08
(PID.TID 0000.0001) %MON gud_iceFrac_max              =   0.0000000000000E+00
(PID.TID 0000.0001) %MON gud_iceFrac_min              =   0.0000000000000E+00
(PID.TID 0000.0001) %MON gud_iceFrac_mean             =   0.0000000000000E+00
(PID.TID 0000.0001) %MON gud_iceFrac_sd               =   0.0000000000000E+00
(PID.TID 0000.0001) %MON gud_iceFrac_del2             =   0.0000000000000E+00
(PID.TID 0000.0001) %MON gud_windSpeed_max            =   0.0000000000000E+00
(PID.TID 0000.0001) %MON gud_windSpeed_min            =   0.0000000000000E+00
(PID.TID 0000.0001) %MON gud_windSpeed_mean           =   0.0000000000000E+00
(PID.TID 0000.0001) %MON gud_windSpeed_sd             =   0.0000000000000E+00
(PID.TID 0000.0001) %MON gud_windSpeed_del2           =   0.0000000000000E+00
(PID.TID 0000.0001) %MON gud_atmospCO2_max            =   0.0000000000000E+00
(PID.TID 0000.0001) %MON gud_atmospCO2_min            =   0.0000000000000E+00
(PID.TID 0000.0001) %MON gud_atmospCO2_mean           =   0.0000000000000E+00
(PID.TID 0000.0001) %MON gud_atmospCO2_sd             =   0.0000000000000E+00
(PID.TID 0000.0001) %MON gud_atmospCO2_del2           =   0.0000000000000E+00
(PID.TID 0000.0001) // =======================================================
(PID.TID 0000.0001) // End MONITOR GUD statistics
(PID.TID 0000.0001) // =======================================================
 Local pointing vectors
 no(2) =   0.27363063147685535      -0.12470066308196398       0.95371695074822704     
 ea(2) =   0.41469324265623930       0.90996127087654310        0.0000000000000000     
 up(2) =   0.86784548855935806      -0.39549997488200311      -0.30070579950427312     
(PID.TID 0000.0001) // =======================================================
(PID.TID 0000.0001) // Begin MONITOR dynamic field statistics
(PID.TID 0000.0001) // =======================================================
(PID.TID 0000.0001) %MON time_tsnumber                =                     1
(PID.TID 0000.0001) %MON time_secondsf                =   3.6000000000000E+03
(PID.TID 0000.0001) %MON dynstat_eta_max              =   0.0000000000000E+00
(PID.TID 0000.0001) %MON dynstat_eta_min              =   0.0000000000000E+00
(PID.TID 0000.0001) %MON dynstat_eta_mean             =   0.0000000000000E+00
(PID.TID 0000.0001) %MON dynstat_eta_sd               =   0.0000000000000E+00
(PID.TID 0000.0001) %MON dynstat_eta_del2             =   0.0000000000000E+00
(PID.TID 0000.0001) %MON dynstat_uvel_max             =   0.0000000000000E+00
(PID.TID 0000.0001) %MON dynstat_uvel_min             =   0.0000000000000E+00
(PID.TID 0000.0001) %MON dynstat_uvel_mean            =   0.0000000000000E+00
(PID.TID 0000.0001) %MON dynstat_uvel_sd              =   0.0000000000000E+00
(PID.TID 0000.0001) %MON dynstat_uvel_del2            =   0.0000000000000E+00
(PID.TID 0000.0001) %MON dynstat_vvel_max             =   0.0000000000000E+00
(PID.TID 0000.0001) %MON dynstat_vvel_min             =   0.0000000000000E+00
(PID.TID 0000.0001) %MON dynstat_vvel_mean            =   0.0000000000000E+00
(PID.TID 0000.0001) %MON dynstat_vvel_sd              =   0.0000000000000E+00
(PID.TID 0000.0001) %MON dynstat_vvel_del2            =   0.0000000000000E+00
(PID.TID 0000.0001) %MON dynstat_wvel_max             =   0.0000000000000E+00
(PID.TID 0000.0001) %MON dynstat_wvel_min             =   0.0000000000000E+00
(PID.TID 0000.0001) %MON dynstat_wvel_mean            =   0.0000000000000E+00
(PID.TID 0000.0001) %MON dynstat_wvel_sd              =   0.0000000000000E+00
(PID.TID 0000.0001) %MON dynstat_wvel_del2            =   0.0000000000000E+00
(PID.TID 0000.0001) %MON dynstat_theta_max            =   2.6335817374515E+01
(PID.TID 0000.0001) %MON dynstat_theta_min            =   2.6737003185748E+00
(PID.TID 0000.0001) %MON dynstat_theta_mean           =   5.4735670012030E+00
(PID.TID 0000.0001) %MON dynstat_theta_sd             =   5.1970860626953E+00
(PID.TID 0000.0001) %MON dynstat_theta_del2           =   0.0000000000000E+00
(PID.TID 0000.0001) %MON dynstat_salt_max             =   3.5000000000000E+01
(PID.TID 0000.0001) %MON dynstat_salt_min             =   3.5000000000000E+01
(PID.TID 0000.0001) %MON dynstat_salt_mean            =   3.5000000000000E+01
(PID.TID 0000.0001) %MON dynstat_salt_sd              =   7.1054273576010E-15
(PID.TID 0000.0001) %MON dynstat_salt_del2            =   0.0000000000000E+00
(PID.TID 0000.0001) %MON dynstat_sst_max              =   2.6335817374515E+01
(PID.TID 0000.0001) %MON dynstat_sst_min              =   2.6335817374515E+01
(PID.TID 0000.0001) %MON dynstat_sst_mean             =   2.6335817374515E+01
(PID.TID 0000.0001) %MON dynstat_sst_sd               =   0.0000000000000E+00
(PID.TID 0000.0001) %MON dynstat_sst_del2             =   0.0000000000000E+00
(PID.TID 0000.0001) %MON dynstat_sss_max              =   3.5000000000000E+01
(PID.TID 0000.0001) %MON dynstat_sss_min              =   3.5000000000000E+01
(PID.TID 0000.0001) %MON dynstat_sss_mean             =   3.5000000000000E+01
(PID.TID 0000.0001) %MON dynstat_sss_sd               =   0.0000000000000E+00
(PID.TID 0000.0001) %MON dynstat_sss_del2             =   0.0000000000000E+00
(PID.TID 0000.0001) %MON forcing_qnet_max             =   0.0000000000000E+00
(PID.TID 0000.0001) %MON forcing_qnet_min             =   0.0000000000000E+00
(PID.TID 0000.0001) %MON forcing_qnet_mean            =   0.0000000000000E+00
(PID.TID 0000.0001) %MON forcing_qnet_sd              =   0.0000000000000E+00
(PID.TID 0000.0001) %MON forcing_qnet_del2            =   0.0000000000000E+00
(PID.TID 0000.0001) %MON forcing_qsw_max              =   0.0000000000000E+00
(PID.TID 0000.0001) %MON forcing_qsw_min              =   0.0000000000000E+00
(PID.TID 0000.0001) %MON forcing_qsw_mean             =   0.0000000000000E+00
(PID.TID 0000.0001) %MON forcing_qsw_sd               =   0.0000000000000E+00
(PID.TID 0000.0001) %MON forcing_qsw_del2             =   0.0000000000000E+00
(PID.TID 0000.0001) %MON forcing_empmr_max            =   0.0000000000000E+00
(PID.TID 0000.0001) %MON forcing_empmr_min            =   0.0000000000000E+00
(PID.TID 0000.0001) %MON forcing_empmr_mean           =   0.0000000000000E+00
(PID.TID 0000.0001) %MON forcing_empmr_sd             =   0.0000000000000E+00
(PID.TID 0000.0001) %MON forcing_empmr_del2           =   0.0000000000000E+00
(PID.TID 0000.0001) %MON forcing_fu_max               =   0.0000000000000E+00
(PID.TID 0000.0001) %MON forcing_fu_min               =   0.0000000000000E+00
(PID.TID 0000.0001) %MON forcing_fu_mean              =   0.0000000000000E+00
(PID.TID 0000.0001) %MON forcing_fu_sd                =   0.0000000000000E+00
(PID.TID 0000.0001) %MON forcing_fu_del2              =   0.0000000000000E+00
(PID.TID 0000.0001) %MON forcing_fv_max               =   0.0000000000000E+00
(PID.TID 0000.0001) %MON forcing_fv_min               =   0.0000000000000E+00
(PID.TID 0000.0001) %MON forcing_fv_mean              =   0.0000000000000E+00
(PID.TID 0000.0001) %MON forcing_fv_sd                =   0.0000000000000E+00
(PID.TID 0000.0001) %MON forcing_fv_del2              =   0.0000000000000E+00
(PID.TID 0000.0001) %MON advcfl_uvel_max              =   0.0000000000000E+00
(PID.TID 0000.0001) %MON advcfl_vvel_max              =   0.0000000000000E+00
(PID.TID 0000.0001) %MON advcfl_wvel_max              =   0.0000000000000E+00
(PID.TID 0000.0001) %MON advcfl_W_hf_max              =   0.0000000000000E+00
(PID.TID 0000.0001) %MON pe_b_mean                    =   0.0000000000000E+00
(PID.TID 0000.0001) %MON ke_max                       =   0.0000000000000E+00
(PID.TID 0000.0001) %MON ke_mean                      =   0.0000000000000E+00
(PID.TID 0000.0001) %MON ke_vol                       =   4.1199767883485E+13
(PID.TID 0000.0001) %MON vort_r_min                   =   0.0000000000000E+00
(PID.TID 0000.0001) %MON vort_r_max                   =   0.0000000000000E+00
(PID.TID 0000.0001) %MON vort_a_mean                  =  -4.5067801836625E-05
(PID.TID 0000.0001) %MON vort_a_sd                    =  -4.1359030627651E-25
(PID.TID 0000.0001) %MON vort_p_mean                  =  -4.5067801836625E-05
(PID.TID 0000.0001) %MON vort_p_sd                    =   0.0000000000000E+00
(PID.TID 0000.0001) %MON surfExpan_theta_mean         =   0.0000000000000E+00
(PID.TID 0000.0001) %MON surfExpan_salt_mean          =   0.0000000000000E+00
(PID.TID 0000.0001) // =======================================================
(PID.TID 0000.0001) // End MONITOR dynamic field statistics
(PID.TID 0000.0001) // =======================================================
(PID.TID 0000.0001) // =======================================================
(PID.TID 0000.0001) // Begin MONITOR ptracer field statistics
(PID.TID 0000.0001) // =======================================================
(PID.TID 0000.0001) %MON trcstat_ptracer01_max        =   2.0000000000000E+03
(PID.TID 0000.0001) %MON trcstat_ptracer01_min        =   1.9999998566087E+03
(PID.TID 0000.0001) %MON trcstat_ptracer01_mean       =   1.9999999993554E+03
(PID.TID 0000.0001) %MON trcstat_ptracer01_sd         =   8.4686030501776E-06
(PID.TID 0000.0001) %MON trcstat_ptracer01_del2       =   0.0000000000000E+00
(PID.TID 0000.0001) %MON trcstat_ptracer02_max        =   2.3480169224451E-02
(PID.TID 0000.0001) %MON trcstat_ptracer02_min        =   1.7199487607700E-07
(PID.TID 0000.0001) %MON trcstat_ptracer02_mean       =   5.6343946438035E-04
(PID.TID 0000.0001) %MON trcstat_ptracer02_sd         =   3.0246885648184E-03
(PID.TID 0000.0001) %MON trcstat_ptracer02_del2       =   0.0000000000000E+00
(PID.TID 0000.0001) %MON trcstat_ptracer03_max        =   1.8440405081377E-02
(PID.TID 0000.0001) %MON trcstat_ptracer03_min        =   3.8791489719394E-06
(PID.TID 0000.0001) %MON trcstat_ptracer03_mean       =   6.4376586957209E-04
(PID.TID 0000.0001) %MON trcstat_ptracer03_sd         =   2.0403754875477E-03
(PID.TID 0000.0001) %MON trcstat_ptracer03_del2       =   0.0000000000000E+00
(PID.TID 0000.0001) %MON trcstat_ptracer04_max        =   3.3903497946887E+01
(PID.TID 0000.0001) %MON trcstat_ptracer04_min        =   4.6417536541081E-02
(PID.TID 0000.0001) %MON trcstat_ptracer04_mean       =   2.3502392213569E+01
(PID.TID 0000.0001) %MON trcstat_ptracer04_sd         =   7.8161955811303E+00
(PID.TID 0000.0001) %MON trcstat_ptracer04_del2       =   0.0000000000000E+00
(PID.TID 0000.0001) %MON trcstat_ptracer05_max        =   2.2436998099664E+00
(PID.TID 0000.0001) %MON trcstat_ptracer05_min        =   2.1025299275998E-01
(PID.TID 0000.0001) %MON trcstat_ptracer05_mean       =   1.5821338295326E+00
(PID.TID 0000.0001) %MON trcstat_ptracer05_sd         =   4.6735024890402E-01
(PID.TID 0000.0001) %MON trcstat_ptracer05_del2       =   0.0000000000000E+00
(PID.TID 0000.0001) %MON trcstat_ptracer06_max        =   3.9387401347897E+01
(PID.TID 0000.0001) %MON trcstat_ptracer06_min        =   1.2248048835386E+00
(PID.TID 0000.0001) %MON trcstat_ptracer06_mean       =   2.9621889553584E+01
(PID.TID 0000.0001) %MON trcstat_ptracer06_sd         =   1.1270586408383E+01
(PID.TID 0000.0001) %MON trcstat_ptracer06_del2       =   0.0000000000000E+00
(PID.TID 0000.0001) %MON trcstat_ptracer07_max        =   1.3001303281849E-03
(PID.TID 0000.0001) %MON trcstat_ptracer07_min        =   1.2999853926150E-03
(PID.TID 0000.0001) %MON trcstat_ptracer07_mean       =   1.2999858887340E-03
(PID.TID 0000.0001) %MON trcstat_ptracer07_sd         =   7.7455643332051E-09
(PID.TID 0000.0001) %MON trcstat_ptracer07_del2       =   0.0000000000000E+00
(PID.TID 0000.0001) %MON trcstat_ptracer08_max        =   2.0040849435941E-03
(PID.TID 0000.0001) %MON trcstat_ptracer08_min        =  -5.4057574598978E-07
(PID.TID 0000.0001) %MON trcstat_ptracer08_mean       =   1.8313516065836E-05
(PID.TID 0000.0001) %MON trcstat_ptracer08_sd         =   1.3263048768244E-04
(PID.TID 0000.0001) %MON trcstat_ptracer08_del2       =   0.0000000000000E+00
(PID.TID 0000.0001) %MON trcstat_ptracer09_max        =   8.2045707451205E-02
(PID.TID 0000.0001) %MON trcstat_ptracer09_min        =   1.5325379376045E-08
(PID.TID 0000.0001) %MON trcstat_ptracer09_mean       =   3.4378273314510E-03
(PID.TID 0000.0001) %MON trcstat_ptracer09_sd         =   1.4797053848933E-02
(PID.TID 0000.0001) %MON trcstat_ptracer09_del2       =   0.0000000000000E+00
(PID.TID 0000.0001) %MON trcstat_ptracer10_max        =   5.1278567157003E-03
(PID.TID 0000.0001) %MON trcstat_ptracer10_min        =   9.5783621100279E-10
(PID.TID 0000.0001) %MON trcstat_ptracer10_mean       =   2.1486420821569E-04
(PID.TID 0000.0001) %MON trcstat_ptracer10_sd         =   9.2481586555834E-04
(PID.TID 0000.0001) %MON trcstat_ptracer10_del2       =   0.0000000000000E+00
(PID.TID 0000.0001) %MON trcstat_ptracer11_max        =   5.1278567046640E-06
(PID.TID 0000.0001) %MON trcstat_ptracer11_min        =   9.5783610368125E-13
(PID.TID 0000.0001) %MON trcstat_ptracer11_mean       =   2.1486420852250E-07
(PID.TID 0000.0001) %MON trcstat_ptracer11_sd         =   9.2481586520920E-07
(PID.TID 0000.0001) %MON trcstat_ptracer11_del2       =   0.0000000000000E+00
(PID.TID 0000.0001) %MON trcstat_ptracer12_max        =   1.0358017152578E-04
(PID.TID 0000.0001) %MON trcstat_ptracer12_min        =   3.4670569912770E-38
(PID.TID 0000.0001) %MON trcstat_ptracer12_mean       =   3.0884964702255E-06
(PID.TID 0000.0001) %MON trcstat_ptracer12_sd         =   1.6192258810715E-05
(PID.TID 0000.0001) %MON trcstat_ptracer12_del2       =   0.0000000000000E+00
(PID.TID 0000.0001) %MON trcstat_ptracer13_max        =   4.3557312228902E-03
(PID.TID 0000.0001) %MON trcstat_ptracer13_min        =   1.8781822848050E-05
(PID.TID 0000.0001) %MON trcstat_ptracer13_mean       =   1.2622687184937E-03
(PID.TID 0000.0001) %MON trcstat_ptracer13_sd         =   1.5450416761962E-03
(PID.TID 0000.0001) %MON trcstat_ptracer13_del2       =   0.0000000000000E+00
(PID.TID 0000.0001) %MON trcstat_ptracer14_max        =   2.7223320143064E-04
(PID.TID 0000.0001) %MON trcstat_ptracer14_min        =   1.1738639280032E-06
(PID.TID 0000.0001) %MON trcstat_ptracer14_mean       =   7.8891794905857E-05
(PID.TID 0000.0001) %MON trcstat_ptracer14_sd         =   9.6565104762264E-05
(PID.TID 0000.0001) %MON trcstat_ptracer14_del2       =   0.0000000000000E+00
(PID.TID 0000.0001) %MON trcstat_ptracer15_max        =   1.6249560323349E-02
(PID.TID 0000.0001) %MON trcstat_ptracer15_min        =   1.1386925448278E-03
(PID.TID 0000.0001) %MON trcstat_ptracer15_mean       =   5.4889823684651E-03
(PID.TID 0000.0001) %MON trcstat_ptracer15_sd         =   5.1715467239950E-03
(PID.TID 0000.0001) %MON trcstat_ptracer15_del2       =   0.0000000000000E+00
(PID.TID 0000.0001) %MON trcstat_ptracer16_max        =   2.7223321719346E-07
(PID.TID 0000.0001) %MON trcstat_ptracer16_min        =   1.1738637993409E-09
(PID.TID 0000.0001) %MON trcstat_ptracer16_mean       =   7.8891795432038E-08
(PID.TID 0000.0001) %MON trcstat_ptracer16_sd         =   9.6565106819750E-08
(PID.TID 0000.0001) %MON trcstat_ptracer16_del2       =   0.0000000000000E+00
(PID.TID 0000.0001) %MON trcstat_ptracer17_max        =   0.0000000000000E+00
(PID.TID 0000.0001) %MON trcstat_ptracer17_min        =   0.0000000000000E+00
(PID.TID 0000.0001) %MON trcstat_ptracer17_mean       =   0.0000000000000E+00
(PID.TID 0000.0001) %MON trcstat_ptracer17_sd         =   0.0000000000000E+00
(PID.TID 0000.0001) %MON trcstat_ptracer17_del2       =   0.0000000000000E+00
(PID.TID 0000.0001) %MON trcstat_ptracer18_max        =   5.1114251933740E-03
(PID.TID 0000.0001) %MON trcstat_ptracer18_min        =   1.9547677775567E-11
(PID.TID 0000.0001) %MON trcstat_ptracer18_mean       =   2.1462813064035E-04
(PID.TID 0000.0001) %MON trcstat_ptracer18_sd         =   9.2388990161145E-04
(PID.TID 0000.0001) %MON trcstat_ptracer18_del2       =   0.0000000000000E+00
(PID.TID 0000.0001) %MON trcstat_ptracer19_max        =   8.7784040723649E-04
(PID.TID 0000.0001) %MON trcstat_ptracer19_min        =   1.1455106270730E-34
(PID.TID 0000.0001) %MON trcstat_ptracer19_mean       =   2.6175379415808E-05
(PID.TID 0000.0001) %MON trcstat_ptracer19_sd         =   1.3721453424018E-04
(PID.TID 0000.0001) %MON trcstat_ptracer19_del2       =   0.0000000000000E+00
(PID.TID 0000.0001) %MON trcstat_ptracer20_max        =   8.7785894917750E-04
(PID.TID 0000.0001) %MON trcstat_ptracer20_min        =   3.9452493772008E-37
(PID.TID 0000.0001) %MON trcstat_ptracer20_mean       =   2.6195192720778E-05
(PID.TID 0000.0001) %MON trcstat_ptracer20_sd         =   1.3735079292530E-04
(PID.TID 0000.0001) %MON trcstat_ptracer20_del2       =   0.0000000000000E+00
(PID.TID 0000.0001) %MON trcstat_ptracer21_max        =   8.7784040723649E-04
(PID.TID 0000.0001) %MON trcstat_ptracer21_min        =   1.1455106270730E-34
(PID.TID 0000.0001) %MON trcstat_ptracer21_mean       =   2.6175379415809E-05
(PID.TID 0000.0001) %MON trcstat_ptracer21_sd         =   1.3721453424019E-04
(PID.TID 0000.0001) %MON trcstat_ptracer21_del2       =   0.0000000000000E+00
(PID.TID 0000.0001) %MON trcstat_ptracer22_max        =   8.7784040723649E-04
(PID.TID 0000.0001) %MON trcstat_ptracer22_min        =   1.1455106270730E-34
(PID.TID 0000.0001) %MON trcstat_ptracer22_mean       =   2.6203488443173E-05
(PID.TID 0000.0001) %MON trcstat_ptracer22_sd         =   1.3738305121189E-04
(PID.TID 0000.0001) %MON trcstat_ptracer22_del2       =   0.0000000000000E+00
(PID.TID 0000.0001) %MON trcstat_ptracer23_max        =   8.7785894917750E-04
(PID.TID 0000.0001) %MON trcstat_ptracer23_min        =   3.9452493772008E-37
(PID.TID 0000.0001) %MON trcstat_ptracer23_mean       =   2.6213762031574E-05
(PID.TID 0000.0001) %MON trcstat_ptracer23_sd         =   1.3746272480021E-04
(PID.TID 0000.0001) %MON trcstat_ptracer23_del2       =   0.0000000000000E+00
(PID.TID 0000.0001) %MON trcstat_ptracer24_max        =   8.7785894917750E-04
(PID.TID 0000.0001) %MON trcstat_ptracer24_min        =   3.9452493772008E-37
(PID.TID 0000.0001) %MON trcstat_ptracer24_mean       =   2.6175379413905E-05
(PID.TID 0000.0001) %MON trcstat_ptracer24_sd         =   1.3723205447389E-04
(PID.TID 0000.0001) %MON trcstat_ptracer24_del2       =   0.0000000000000E+00
(PID.TID 0000.0001) %MON trcstat_ptracer25_max        =   8.7785894917750E-04
(PID.TID 0000.0001) %MON trcstat_ptracer25_min        =   3.9452493772008E-37
(PID.TID 0000.0001) %MON trcstat_ptracer25_mean       =   2.6185734147326E-05
(PID.TID 0000.0001) %MON trcstat_ptracer25_sd         =   1.3729393322986E-04
(PID.TID 0000.0001) %MON trcstat_ptracer25_del2       =   0.0000000000000E+00
(PID.TID 0000.0001) %MON trcstat_ptracer26_max        =   8.7785894917750E-04
(PID.TID 0000.0001) %MON trcstat_ptracer26_min        =   3.9452493772008E-37
(PID.TID 0000.0001) %MON trcstat_ptracer26_mean       =   2.6175379413904E-05
(PID.TID 0000.0001) %MON trcstat_ptracer26_sd         =   1.3723205447388E-04
(PID.TID 0000.0001) %MON trcstat_ptracer26_del2       =   0.0000000000000E+00
(PID.TID 0000.0001) %MON trcstat_ptracer27_max        =   8.7785894917750E-04
(PID.TID 0000.0001) %MON trcstat_ptracer27_min        =   3.9452493772008E-37
(PID.TID 0000.0001) %MON trcstat_ptracer27_mean       =   2.6176445239618E-05
(PID.TID 0000.0001) %MON trcstat_ptracer27_sd         =   1.3723854191209E-04
(PID.TID 0000.0001) %MON trcstat_ptracer27_del2       =   0.0000000000000E+00
(PID.TID 0000.0001) %MON trcstat_ptracer28_max        =   8.7785894917750E-04
(PID.TID 0000.0001) %MON trcstat_ptracer28_min        =   3.9452493772008E-37
(PID.TID 0000.0001) %MON trcstat_ptracer28_mean       =   2.6217005880882E-05
(PID.TID 0000.0001) %MON trcstat_ptracer28_sd         =   1.3748212113984E-04
(PID.TID 0000.0001) %MON trcstat_ptracer28_del2       =   0.0000000000000E+00
(PID.TID 0000.0001) %MON trcstat_ptracer29_max        =   8.7785894917750E-04
(PID.TID 0000.0001) %MON trcstat_ptracer29_min        =   3.9452493772008E-37
(PID.TID 0000.0001) %MON trcstat_ptracer29_mean       =   2.6175379413906E-05
(PID.TID 0000.0001) %MON trcstat_ptracer29_sd         =   1.3723205447390E-04
(PID.TID 0000.0001) %MON trcstat_ptracer29_del2       =   0.0000000000000E+00
(PID.TID 0000.0001) %MON trcstat_ptracer30_max        =   8.7785894917750E-04
(PID.TID 0000.0001) %MON trcstat_ptracer30_min        =   3.9452493772008E-37
(PID.TID 0000.0001) %MON trcstat_ptracer30_mean       =   2.6175379413904E-05
(PID.TID 0000.0001) %MON trcstat_ptracer30_sd         =   1.3723205447388E-04
(PID.TID 0000.0001) %MON trcstat_ptracer30_del2       =   0.0000000000000E+00
(PID.TID 0000.0001) %MON trcstat_ptracer31_max        =   8.7784040716842E-04
(PID.TID 0000.0001) %MON trcstat_ptracer31_min        =   1.1455106270730E-34
(PID.TID 0000.0001) %MON trcstat_ptracer31_mean       =   2.6175379413906E-05
(PID.TID 0000.0001) %MON trcstat_ptracer31_sd         =   1.3721453422994E-04
(PID.TID 0000.0001) %MON trcstat_ptracer31_del2       =   0.0000000000000E+00
(PID.TID 0000.0001) %MON trcstat_ptracer32_max        =   8.7785894917750E-04
(PID.TID 0000.0001) %MON trcstat_ptracer32_min        =   3.9452493772008E-37
(PID.TID 0000.0001) %MON trcstat_ptracer32_mean       =   2.6175379413904E-05
(PID.TID 0000.0001) %MON trcstat_ptracer32_sd         =   1.3723205447389E-04
(PID.TID 0000.0001) %MON trcstat_ptracer32_del2       =   0.0000000000000E+00
(PID.TID 0000.0001) %MON trcstat_ptracer33_max        =   8.7785894917750E-04
(PID.TID 0000.0001) %MON trcstat_ptracer33_min        =   3.9452493772008E-37
(PID.TID 0000.0001) %MON trcstat_ptracer33_mean       =   2.6205406376329E-05
(PID.TID 0000.0001) %MON trcstat_ptracer33_sd         =   1.3741189788538E-04
(PID.TID 0000.0001) %MON trcstat_ptracer33_del2       =   0.0000000000000E+00
(PID.TID 0000.0001) %MON trcstat_ptracer34_max        =   8.7784040723649E-04
(PID.TID 0000.0001) %MON trcstat_ptracer34_min        =   1.1455106270730E-34
(PID.TID 0000.0001) %MON trcstat_ptracer34_mean       =   2.6175379415809E-05
(PID.TID 0000.0001) %MON trcstat_ptracer34_sd         =   1.3721453424019E-04
(PID.TID 0000.0001) %MON trcstat_ptracer34_del2       =   0.0000000000000E+00
(PID.TID 0000.0001) %MON trcstat_ptracer35_max        =   8.7784040723649E-04
(PID.TID 0000.0001) %MON trcstat_ptracer35_min        =   1.1455106270730E-34
(PID.TID 0000.0001) %MON trcstat_ptracer35_mean       =   2.6175379415809E-05
(PID.TID 0000.0001) %MON trcstat_ptracer35_sd         =   1.3721453424019E-04
(PID.TID 0000.0001) %MON trcstat_ptracer35_del2       =   0.0000000000000E+00
(PID.TID 0000.0001) %MON trcstat_ptracer36_max        =   8.7785894917750E-04
(PID.TID 0000.0001) %MON trcstat_ptracer36_min        =   3.9452493772008E-37
(PID.TID 0000.0001) %MON trcstat_ptracer36_mean       =   2.6175379413906E-05
(PID.TID 0000.0001) %MON trcstat_ptracer36_sd         =   1.3723205447390E-04
(PID.TID 0000.0001) %MON trcstat_ptracer36_del2       =   0.0000000000000E+00
(PID.TID 0000.0001) %MON trcstat_ptracer37_max        =   8.7784040723649E-04
(PID.TID 0000.0001) %MON trcstat_ptracer37_min        =   1.1455106270730E-34
(PID.TID 0000.0001) %MON trcstat_ptracer37_mean       =   2.6188638918298E-05
(PID.TID 0000.0001) %MON trcstat_ptracer37_sd         =   1.3729406082349E-04
(PID.TID 0000.0001) %MON trcstat_ptracer37_del2       =   0.0000000000000E+00
(PID.TID 0000.0001) %MON trcstat_ptracer38_max        =   8.7784040716842E-04
(PID.TID 0000.0001) %MON trcstat_ptracer38_min        =   1.1455106270730E-34
(PID.TID 0000.0001) %MON trcstat_ptracer38_mean       =   2.6175379413906E-05
(PID.TID 0000.0001) %MON trcstat_ptracer38_sd         =   1.3721453422994E-04
(PID.TID 0000.0001) %MON trcstat_ptracer38_del2       =   0.0000000000000E+00
(PID.TID 0000.0001) %MON trcstat_ptracer39_max        =   8.7784040716842E-04
(PID.TID 0000.0001) %MON trcstat_ptracer39_min        =   1.1455106270730E-34
(PID.TID 0000.0001) %MON trcstat_ptracer39_mean       =   2.6177169500054E-05
(PID.TID 0000.0001) %MON trcstat_ptracer39_sd         =   1.3722538030653E-04
(PID.TID 0000.0001) %MON trcstat_ptracer39_del2       =   0.0000000000000E+00
(PID.TID 0000.0001) %MON trcstat_ptracer40_max        =   8.7784040723649E-04
(PID.TID 0000.0001) %MON trcstat_ptracer40_min        =   1.1455106270730E-34
(PID.TID 0000.0001) %MON trcstat_ptracer40_mean       =   2.6212196890586E-05
(PID.TID 0000.0001) %MON trcstat_ptracer40_sd         =   1.3743514891118E-04
(PID.TID 0000.0001) %MON trcstat_ptracer40_del2       =   0.0000000000000E+00
(PID.TID 0000.0001) %MON trcstat_ptracer41_max        =   8.7785894917750E-04
(PID.TID 0000.0001) %MON trcstat_ptracer41_min        =   3.9452493772008E-37
(PID.TID 0000.0001) %MON trcstat_ptracer41_mean       =   2.6175379413904E-05
(PID.TID 0000.0001) %MON trcstat_ptracer41_sd         =   1.3723205447389E-04
(PID.TID 0000.0001) %MON trcstat_ptracer41_del2       =   0.0000000000000E+00
(PID.TID 0000.0001) %MON trcstat_ptracer42_max        =   8.7784040716842E-04
(PID.TID 0000.0001) %MON trcstat_ptracer42_min        =   1.1455106270730E-34
(PID.TID 0000.0001) %MON trcstat_ptracer42_mean       =   2.6175379413905E-05
(PID.TID 0000.0001) %MON trcstat_ptracer42_sd         =   1.3721453422994E-04
(PID.TID 0000.0001) %MON trcstat_ptracer42_del2       =   0.0000000000000E+00
(PID.TID 0000.0001) %MON trcstat_ptracer43_max        =   8.7785894917750E-04
(PID.TID 0000.0001) %MON trcstat_ptracer43_min        =   3.9452493772008E-37
(PID.TID 0000.0001) %MON trcstat_ptracer43_mean       =   2.6175379413904E-05
(PID.TID 0000.0001) %MON trcstat_ptracer43_sd         =   1.3723205447388E-04
(PID.TID 0000.0001) %MON trcstat_ptracer43_del2       =   0.0000000000000E+00
(PID.TID 0000.0001) %MON trcstat_ptracer44_max        =   8.7785894917750E-04
(PID.TID 0000.0001) %MON trcstat_ptracer44_min        =   3.9452493772008E-37
(PID.TID 0000.0001) %MON trcstat_ptracer44_mean       =   2.6175379413904E-05
(PID.TID 0000.0001) %MON trcstat_ptracer44_sd         =   1.3723205447388E-04
(PID.TID 0000.0001) %MON trcstat_ptracer44_del2       =   0.0000000000000E+00
(PID.TID 0000.0001) %MON trcstat_ptracer45_max        =   8.7785894917750E-04
(PID.TID 0000.0001) %MON trcstat_ptracer45_min        =   3.9452493772008E-37
(PID.TID 0000.0001) %MON trcstat_ptracer45_mean       =   2.6175379413904E-05
(PID.TID 0000.0001) %MON trcstat_ptracer45_sd         =   1.3723205447389E-04
(PID.TID 0000.0001) %MON trcstat_ptracer45_del2       =   0.0000000000000E+00
(PID.TID 0000.0001) %MON trcstat_ptracer46_max        =   8.7785894917750E-04
(PID.TID 0000.0001) %MON trcstat_ptracer46_min        =   3.9452493772008E-37
(PID.TID 0000.0001) %MON trcstat_ptracer46_mean       =   2.6175379413904E-05
(PID.TID 0000.0001) %MON trcstat_ptracer46_sd         =   1.3723205447389E-04
(PID.TID 0000.0001) %MON trcstat_ptracer46_del2       =   0.0000000000000E+00
(PID.TID 0000.0001) %MON trcstat_ptracer47_max        =   8.7784040716842E-04
(PID.TID 0000.0001) %MON trcstat_ptracer47_min        =   1.1455106270730E-34
(PID.TID 0000.0001) %MON trcstat_ptracer47_mean       =   2.6212109184457E-05
(PID.TID 0000.0001) %MON trcstat_ptracer47_sd         =   1.3743464893833E-04
(PID.TID 0000.0001) %MON trcstat_ptracer47_del2       =   0.0000000000000E+00
(PID.TID 0000.0001) %MON trcstat_ptracer48_max        =   8.7785894917750E-04
(PID.TID 0000.0001) %MON trcstat_ptracer48_min        =   3.9452493772008E-37
(PID.TID 0000.0001) %MON trcstat_ptracer48_mean       =   2.6175379413907E-05
(PID.TID 0000.0001) %MON trcstat_ptracer48_sd         =   1.3723205447390E-04
(PID.TID 0000.0001) %MON trcstat_ptracer48_del2       =   0.0000000000000E+00
(PID.TID 0000.0001) %MON trcstat_ptracer49_max        =   8.7784040716842E-04
(PID.TID 0000.0001) %MON trcstat_ptracer49_min        =   1.1455106270730E-34
(PID.TID 0000.0001) %MON trcstat_ptracer49_mean       =   2.6212994733437E-05
(PID.TID 0000.0001) %MON trcstat_ptracer49_sd         =   1.3743992360033E-04
(PID.TID 0000.0001) %MON trcstat_ptracer49_del2       =   0.0000000000000E+00
(PID.TID 0000.0001) %MON trcstat_ptracer50_max        =   8.7785894917750E-04
(PID.TID 0000.0001) %MON trcstat_ptracer50_min        =   3.9452493772008E-37
(PID.TID 0000.0001) %MON trcstat_ptracer50_mean       =   2.6202126849916E-05
(PID.TID 0000.0001) %MON trcstat_ptracer50_sd         =   1.3739221120288E-04
(PID.TID 0000.0001) %MON trcstat_ptracer50_del2       =   0.0000000000000E+00
(PID.TID 0000.0001) %MON trcstat_ptracer51_max        =   8.7784040716842E-04
(PID.TID 0000.0001) %MON trcstat_ptracer51_min        =   1.1455106270730E-34
(PID.TID 0000.0001) %MON trcstat_ptracer51_mean       =   2.6191630286311E-05
(PID.TID 0000.0001) %MON trcstat_ptracer51_sd         =   1.3731195931706E-04
(PID.TID 0000.0001) %MON trcstat_ptracer51_del2       =   0.0000000000000E+00
(PID.TID 0000.0001) %MON trcstat_ptracer52_max        =   8.7785894917750E-04
(PID.TID 0000.0001) %MON trcstat_ptracer52_min        =   3.9452493772008E-37
(PID.TID 0000.0001) %MON trcstat_ptracer52_mean       =   2.6210571701317E-05
(PID.TID 0000.0001) %MON trcstat_ptracer52_sd         =   1.3744343459600E-04
(PID.TID 0000.0001) %MON trcstat_ptracer52_del2       =   0.0000000000000E+00
(PID.TID 0000.0001) %MON trcstat_ptracer53_max        =   8.7785894917750E-04
(PID.TID 0000.0001) %MON trcstat_ptracer53_min        =   3.9452493772008E-37
(PID.TID 0000.0001) %MON trcstat_ptracer53_mean       =   2.6175379413905E-05
(PID.TID 0000.0001) %MON trcstat_ptracer53_sd         =   1.3723205447389E-04
(PID.TID 0000.0001) %MON trcstat_ptracer53_del2       =   0.0000000000000E+00
(PID.TID 0000.0001) %MON trcstat_ptracer54_max        =   8.7784040723649E-04
(PID.TID 0000.0001) %MON trcstat_ptracer54_min        =   1.1455106270730E-34
(PID.TID 0000.0001) %MON trcstat_ptracer54_mean       =   2.6175379415808E-05
(PID.TID 0000.0001) %MON trcstat_ptracer54_sd         =   1.3721453424018E-04
(PID.TID 0000.0001) %MON trcstat_ptracer54_del2       =   0.0000000000000E+00
(PID.TID 0000.0001) %MON trcstat_ptracer55_max        =   8.7785894917750E-04
(PID.TID 0000.0001) %MON trcstat_ptracer55_min        =   3.9452493772008E-37
(PID.TID 0000.0001) %MON trcstat_ptracer55_mean       =   2.6175379413905E-05
(PID.TID 0000.0001) %MON trcstat_ptracer55_sd         =   1.3723205447389E-04
(PID.TID 0000.0001) %MON trcstat_ptracer55_del2       =   0.0000000000000E+00
(PID.TID 0000.0001) %MON trcstat_ptracer56_max        =   8.7785894917750E-04
(PID.TID 0000.0001) %MON trcstat_ptracer56_min        =   3.9452493772008E-37
(PID.TID 0000.0001) %MON trcstat_ptracer56_mean       =   2.6175379413907E-05
(PID.TID 0000.0001) %MON trcstat_ptracer56_sd         =   1.3723205447390E-04
(PID.TID 0000.0001) %MON trcstat_ptracer56_del2       =   0.0000000000000E+00
(PID.TID 0000.0001) %MON trcstat_ptracer57_max        =   8.7785894917750E-04
(PID.TID 0000.0001) %MON trcstat_ptracer57_min        =   3.9452493772008E-37
(PID.TID 0000.0001) %MON trcstat_ptracer57_mean       =   2.6175379413906E-05
(PID.TID 0000.0001) %MON trcstat_ptracer57_sd         =   1.3723205447390E-04
(PID.TID 0000.0001) %MON trcstat_ptracer57_del2       =   0.0000000000000E+00
(PID.TID 0000.0001) %MON trcstat_ptracer58_max        =   8.7784040723649E-04
(PID.TID 0000.0001) %MON trcstat_ptracer58_min        =   1.1455106270730E-34
(PID.TID 0000.0001) %MON trcstat_ptracer58_mean       =   2.6175379415809E-05
(PID.TID 0000.0001) %MON trcstat_ptracer58_sd         =   1.3721453424019E-04
(PID.TID 0000.0001) %MON trcstat_ptracer58_del2       =   0.0000000000000E+00
(PID.TID 0000.0001) %MON trcstat_ptracer59_max        =   8.7785894917750E-04
(PID.TID 0000.0001) %MON trcstat_ptracer59_min        =   3.9452493772008E-37
(PID.TID 0000.0001) %MON trcstat_ptracer59_mean       =   2.6175379413905E-05
(PID.TID 0000.0001) %MON trcstat_ptracer59_sd         =   1.3723205447389E-04
(PID.TID 0000.0001) %MON trcstat_ptracer59_del2       =   0.0000000000000E+00
(PID.TID 0000.0001) %MON trcstat_ptracer60_max        =   8.7784040716842E-04
(PID.TID 0000.0001) %MON trcstat_ptracer60_min        =   1.1455106270730E-34
(PID.TID 0000.0001) %MON trcstat_ptracer60_mean       =   2.6175379413906E-05
(PID.TID 0000.0001) %MON trcstat_ptracer60_sd         =   1.3721453422994E-04
(PID.TID 0000.0001) %MON trcstat_ptracer60_del2       =   0.0000000000000E+00
(PID.TID 0000.0001) %MON trcstat_ptracer61_max        =   8.7785894917750E-04
(PID.TID 0000.0001) %MON trcstat_ptracer61_min        =   3.9452493772008E-37
(PID.TID 0000.0001) %MON trcstat_ptracer61_mean       =   2.6175379413907E-05
(PID.TID 0000.0001) %MON trcstat_ptracer61_sd         =   1.3723205447390E-04
(PID.TID 0000.0001) %MON trcstat_ptracer61_del2       =   0.0000000000000E+00
(PID.TID 0000.0001) %MON trcstat_ptracer62_max        =   8.7784040716842E-04
(PID.TID 0000.0001) %MON trcstat_ptracer62_min        =   1.1455106270730E-34
(PID.TID 0000.0001) %MON trcstat_ptracer62_mean       =   2.6175379413905E-05
(PID.TID 0000.0001) %MON trcstat_ptracer62_sd         =   1.3721453422994E-04
(PID.TID 0000.0001) %MON trcstat_ptracer62_del2       =   0.0000000000000E+00
(PID.TID 0000.0001) %MON trcstat_ptracer63_max        =   8.7785894917750E-04
(PID.TID 0000.0001) %MON trcstat_ptracer63_min        =   3.9452493772008E-37
(PID.TID 0000.0001) %MON trcstat_ptracer63_mean       =   2.6190962641528E-05
(PID.TID 0000.0001) %MON trcstat_ptracer63_sd         =   1.3732524879810E-04
(PID.TID 0000.0001) %MON trcstat_ptracer63_del2       =   0.0000000000000E+00
(PID.TID 0000.0001) %MON trcstat_ptracer64_max        =   8.7784040716842E-04
(PID.TID 0000.0001) %MON trcstat_ptracer64_min        =   1.1455106270730E-34
(PID.TID 0000.0001) %MON trcstat_ptracer64_mean       =   2.6210975793056E-05
(PID.TID 0000.0001) %MON trcstat_ptracer64_sd         =   1.3742772215568E-04
(PID.TID 0000.0001) %MON trcstat_ptracer64_del2       =   0.0000000000000E+00
(PID.TID 0000.0001) %MON trcstat_ptracer65_max        =   8.7784040716842E-04
(PID.TID 0000.0001) %MON trcstat_ptracer65_min        =   1.1455106270730E-34
(PID.TID 0000.0001) %MON trcstat_ptracer65_mean       =   2.6175379413907E-05
(PID.TID 0000.0001) %MON trcstat_ptracer65_sd         =   1.3721453422994E-04
(PID.TID 0000.0001) %MON trcstat_ptracer65_del2       =   0.0000000000000E+00
(PID.TID 0000.0001) %MON trcstat_ptracer66_max        =   8.7784040716842E-04
(PID.TID 0000.0001) %MON trcstat_ptracer66_min        =   1.1455106270730E-34
(PID.TID 0000.0001) %MON trcstat_ptracer66_mean       =   2.6175379413906E-05
(PID.TID 0000.0001) %MON trcstat_ptracer66_sd         =   1.3721453422994E-04
(PID.TID 0000.0001) %MON trcstat_ptracer66_del2       =   0.0000000000000E+00
(PID.TID 0000.0001) %MON trcstat_ptracer67_max        =   8.7784040716842E-04
(PID.TID 0000.0001) %MON trcstat_ptracer67_min        =   1.1455106270730E-34
(PID.TID 0000.0001) %MON trcstat_ptracer67_mean       =   2.6175379413906E-05
(PID.TID 0000.0001) %MON trcstat_ptracer67_sd         =   1.3721453422994E-04
(PID.TID 0000.0001) %MON trcstat_ptracer67_del2       =   0.0000000000000E+00
(PID.TID 0000.0001) %MON trcstat_ptracer68_max        =   8.7785894917750E-04
(PID.TID 0000.0001) %MON trcstat_ptracer68_min        =   3.9452493772008E-37
(PID.TID 0000.0001) %MON trcstat_ptracer68_mean       =   2.6191806340995E-05
(PID.TID 0000.0001) %MON trcstat_ptracer68_sd         =   1.3733052122359E-04
(PID.TID 0000.0001) %MON trcstat_ptracer68_del2       =   0.0000000000000E+00
(PID.TID 0000.0001) %MON trcstat_ptracer69_max        =   8.7785894917750E-04
(PID.TID 0000.0001) %MON trcstat_ptracer69_min        =   3.9452493772008E-37
(PID.TID 0000.0001) %MON trcstat_ptracer69_mean       =   2.6175379413907E-05
(PID.TID 0000.0001) %MON trcstat_ptracer69_sd         =   1.3723205447391E-04
(PID.TID 0000.0001) %MON trcstat_ptracer69_del2       =   0.0000000000000E+00
(PID.TID 0000.0001) %MON trcstat_ptracer70_max        =   8.7784040723649E-04
(PID.TID 0000.0001) %MON trcstat_ptracer70_min        =   1.1455106270730E-34
(PID.TID 0000.0001) %MON trcstat_ptracer70_mean       =   2.6175379415809E-05
(PID.TID 0000.0001) %MON trcstat_ptracer70_sd         =   1.3721453424019E-04
(PID.TID 0000.0001) %MON trcstat_ptracer70_del2       =   0.0000000000000E+00
(PID.TID 0000.0001) %MON trcstat_ptracer71_max        =   8.7784040723649E-04
(PID.TID 0000.0001) %MON trcstat_ptracer71_min        =   1.1455106270730E-34
(PID.TID 0000.0001) %MON trcstat_ptracer71_mean       =   2.6175379415808E-05
(PID.TID 0000.0001) %MON trcstat_ptracer71_sd         =   1.3721453424018E-04
(PID.TID 0000.0001) %MON trcstat_ptracer71_del2       =   0.0000000000000E+00
(PID.TID 0000.0001) %MON trcstat_ptracer72_max        =   8.7784040716842E-04
(PID.TID 0000.0001) %MON trcstat_ptracer72_min        =   1.1455106270730E-34
(PID.TID 0000.0001) %MON trcstat_ptracer72_mean       =   2.6175379413905E-05
(PID.TID 0000.0001) %MON trcstat_ptracer72_sd         =   1.3721453422994E-04
(PID.TID 0000.0001) %MON trcstat_ptracer72_del2       =   0.0000000000000E+00
(PID.TID 0000.0001) %MON trcstat_ptracer73_max        =   8.7784040716842E-04
(PID.TID 0000.0001) %MON trcstat_ptracer73_min        =   1.1455106270730E-34
(PID.TID 0000.0001) %MON trcstat_ptracer73_mean       =   2.6211610714681E-05
(PID.TID 0000.0001) %MON trcstat_ptracer73_sd         =   1.3743157986566E-04
(PID.TID 0000.0001) %MON trcstat_ptracer73_del2       =   0.0000000000000E+00
(PID.TID 0000.0001) %MON trcstat_ptracer74_max        =   8.7784040723649E-04
(PID.TID 0000.0001) %MON trcstat_ptracer74_min        =   1.1455106270730E-34
(PID.TID 0000.0001) %MON trcstat_ptracer74_mean       =   2.6175379415809E-05
(PID.TID 0000.0001) %MON trcstat_ptracer74_sd         =   1.3721453424019E-04
(PID.TID 0000.0001) %MON trcstat_ptracer74_del2       =   0.0000000000000E+00
(PID.TID 0000.0001) %MON trcstat_ptracer75_max        =   8.7784040716842E-04
(PID.TID 0000.0001) %MON trcstat_ptracer75_min        =   1.1455106270730E-34
(PID.TID 0000.0001) %MON trcstat_ptracer75_mean       =   2.6214960215584E-05
(PID.TID 0000.0001) %MON trcstat_ptracer75_sd         =   1.3745175071377E-04
(PID.TID 0000.0001) %MON trcstat_ptracer75_del2       =   0.0000000000000E+00
(PID.TID 0000.0001) %MON trcstat_ptracer76_max        =   8.7784040723649E-04
(PID.TID 0000.0001) %MON trcstat_ptracer76_min        =   1.1455106270730E-34
(PID.TID 0000.0001) %MON trcstat_ptracer76_mean       =   2.6185386546835E-05
(PID.TID 0000.0001) %MON trcstat_ptracer76_sd         =   1.3727461724854E-04
(PID.TID 0000.0001) %MON trcstat_ptracer76_del2       =   0.0000000000000E+00
(PID.TID 0000.0001) %MON trcstat_ptracer77_max        =   8.7784040716842E-04
(PID.TID 0000.0001) %MON trcstat_ptracer77_min        =   1.1455106270730E-34
(PID.TID 0000.0001) %MON trcstat_ptracer77_mean       =   2.6175379413907E-05
(PID.TID 0000.0001) %MON trcstat_ptracer77_sd         =   1.3721453422995E-04
(PID.TID 0000.0001) %MON trcstat_ptracer77_del2       =   0.0000000000000E+00
(PID.TID 0000.0001) %MON trcstat_ptracer78_max        =   8.7784040716842E-04
(PID.TID 0000.0001) %MON trcstat_ptracer78_min        =   1.1455106270730E-34
(PID.TID 0000.0001) %MON trcstat_ptracer78_mean       =   2.6178920139467E-05
(PID.TID 0000.0001) %MON trcstat_ptracer78_sd         =   1.3723586903404E-04
(PID.TID 0000.0001) %MON trcstat_ptracer78_del2       =   0.0000000000000E+00
(PID.TID 0000.0001) %MON trcstat_ptracer79_max        =   8.7784040716842E-04
(PID.TID 0000.0001) %MON trcstat_ptracer79_min        =   1.1455106270730E-34
(PID.TID 0000.0001) %MON trcstat_ptracer79_mean       =   2.6175379413906E-05
(PID.TID 0000.0001) %MON trcstat_ptracer79_sd         =   1.3721453422994E-04
(PID.TID 0000.0001) %MON trcstat_ptracer79_del2       =   0.0000000000000E+00
(PID.TID 0000.0001) %MON trcstat_ptracer80_max        =   8.7784040716842E-04
(PID.TID 0000.0001) %MON trcstat_ptracer80_min        =   1.1455106270730E-34
(PID.TID 0000.0001) %MON trcstat_ptracer80_mean       =   2.6175379413905E-05
(PID.TID 0000.0001) %MON trcstat_ptracer80_sd         =   1.3721453422993E-04
(PID.TID 0000.0001) %MON trcstat_ptracer80_del2       =   0.0000000000000E+00
(PID.TID 0000.0001) %MON trcstat_ptracer81_max        =   8.7784040723649E-04
(PID.TID 0000.0001) %MON trcstat_ptracer81_min        =   1.1455106270730E-34
(PID.TID 0000.0001) %MON trcstat_ptracer81_mean       =   2.6196823952812E-05
(PID.TID 0000.0001) %MON trcstat_ptracer81_sd         =   1.3734311116366E-04
(PID.TID 0000.0001) %MON trcstat_ptracer81_del2       =   0.0000000000000E+00
(PID.TID 0000.0001) %MON trcstat_ptracer82_max        =   8.7785894917750E-04
(PID.TID 0000.0001) %MON trcstat_ptracer82_min        =   3.9452493772008E-37
(PID.TID 0000.0001) %MON trcstat_ptracer82_mean       =   2.6175379413904E-05
(PID.TID 0000.0001) %MON trcstat_ptracer82_sd         =   1.3723205447389E-04
(PID.TID 0000.0001) %MON trcstat_ptracer82_del2       =   0.0000000000000E+00
(PID.TID 0000.0001) %MON trcstat_ptracer83_max        =   8.7784040723649E-04
(PID.TID 0000.0001) %MON trcstat_ptracer83_min        =   1.1455106270730E-34
(PID.TID 0000.0001) %MON trcstat_ptracer83_mean       =   2.6175379415808E-05
(PID.TID 0000.0001) %MON trcstat_ptracer83_sd         =   1.3721453424018E-04
(PID.TID 0000.0001) %MON trcstat_ptracer83_del2       =   0.0000000000000E+00
(PID.TID 0000.0001) %MON trcstat_ptracer84_max        =   8.7785894917750E-04
(PID.TID 0000.0001) %MON trcstat_ptracer84_min        =   3.9452493772008E-37
(PID.TID 0000.0001) %MON trcstat_ptracer84_mean       =   2.6175379413904E-05
(PID.TID 0000.0001) %MON trcstat_ptracer84_sd         =   1.3723205447388E-04
(PID.TID 0000.0001) %MON trcstat_ptracer84_del2       =   0.0000000000000E+00
(PID.TID 0000.0001) %MON trcstat_ptracer85_max        =   8.7784040716842E-04
(PID.TID 0000.0001) %MON trcstat_ptracer85_min        =   1.1455106270730E-34
(PID.TID 0000.0001) %MON trcstat_ptracer85_mean       =   2.6175379413906E-05
(PID.TID 0000.0001) %MON trcstat_ptracer85_sd         =   1.3721453422994E-04
(PID.TID 0000.0001) %MON trcstat_ptracer85_del2       =   0.0000000000000E+00
(PID.TID 0000.0001) %MON trcstat_ptracer86_max        =   8.7784040723649E-04
(PID.TID 0000.0001) %MON trcstat_ptracer86_min        =   1.1455106270730E-34
(PID.TID 0000.0001) %MON trcstat_ptracer86_mean       =   2.6181187774439E-05
(PID.TID 0000.0001) %MON trcstat_ptracer86_sd         =   1.3724948271012E-04
(PID.TID 0000.0001) %MON trcstat_ptracer86_del2       =   0.0000000000000E+00
(PID.TID 0000.0001) %MON trcstat_ptracer87_max        =   8.7785894917750E-04
(PID.TID 0000.0001) %MON trcstat_ptracer87_min        =   3.9452493772008E-37
(PID.TID 0000.0001) %MON trcstat_ptracer87_mean       =   2.6204059952618E-05
(PID.TID 0000.0001) %MON trcstat_ptracer87_sd         =   1.3740397345399E-04
(PID.TID 0000.0001) %MON trcstat_ptracer87_del2       =   0.0000000000000E+00
(PID.TID 0000.0001) %MON trcstat_ptracer88_max        =   8.7785894917750E-04
(PID.TID 0000.0001) %MON trcstat_ptracer88_min        =   3.9452493772008E-37
(PID.TID 0000.0001) %MON trcstat_ptracer88_mean       =   2.6175379413904E-05
(PID.TID 0000.0001) %MON trcstat_ptracer88_sd         =   1.3723205447389E-04
(PID.TID 0000.0001) %MON trcstat_ptracer88_del2       =   0.0000000000000E+00
(PID.TID 0000.0001) %MON trcstat_ptracer89_max        =   8.7785894917750E-04
(PID.TID 0000.0001) %MON trcstat_ptracer89_min        =   3.9452493772008E-37
(PID.TID 0000.0001) %MON trcstat_ptracer89_mean       =   2.6175379413904E-05
(PID.TID 0000.0001) %MON trcstat_ptracer89_sd         =   1.3723205447389E-04
(PID.TID 0000.0001) %MON trcstat_ptracer89_del2       =   0.0000000000000E+00
(PID.TID 0000.0001) %MON trcstat_ptracer90_max        =   8.7784040723649E-04
(PID.TID 0000.0001) %MON trcstat_ptracer90_min        =   1.1455106270730E-34
(PID.TID 0000.0001) %MON trcstat_ptracer90_mean       =   2.6175379415809E-05
(PID.TID 0000.0001) %MON trcstat_ptracer90_sd         =   1.3721453424019E-04
(PID.TID 0000.0001) %MON trcstat_ptracer90_del2       =   0.0000000000000E+00
(PID.TID 0000.0001) %MON trcstat_ptracer91_max        =   8.7785894917750E-04
(PID.TID 0000.0001) %MON trcstat_ptracer91_min        =   3.9452493772008E-37
(PID.TID 0000.0001) %MON trcstat_ptracer91_mean       =   2.6175379413904E-05
(PID.TID 0000.0001) %MON trcstat_ptracer91_sd         =   1.3723205447389E-04
(PID.TID 0000.0001) %MON trcstat_ptracer91_del2       =   0.0000000000000E+00
(PID.TID 0000.0001) %MON trcstat_ptracer92_max        =   8.7784040716842E-04
(PID.TID 0000.0001) %MON trcstat_ptracer92_min        =   1.1455106270730E-34
(PID.TID 0000.0001) %MON trcstat_ptracer92_mean       =   2.6178911280202E-05
(PID.TID 0000.0001) %MON trcstat_ptracer92_sd         =   1.3723582356420E-04
(PID.TID 0000.0001) %MON trcstat_ptracer92_del2       =   0.0000000000000E+00
(PID.TID 0000.0001) %MON trcstat_ptracer93_max        =   8.7784040723649E-04
(PID.TID 0000.0001) %MON trcstat_ptracer93_min        =   1.1455106270730E-34
(PID.TID 0000.0001) %MON trcstat_ptracer93_mean       =   2.6175379415808E-05
(PID.TID 0000.0001) %MON trcstat_ptracer93_sd         =   1.3721453424018E-04
(PID.TID 0000.0001) %MON trcstat_ptracer93_del2       =   0.0000000000000E+00
(PID.TID 0000.0001) %MON trcstat_ptracer94_max        =   8.7784040723649E-04
(PID.TID 0000.0001) %MON trcstat_ptracer94_min        =   1.1455106270730E-34
(PID.TID 0000.0001) %MON trcstat_ptracer94_mean       =   2.6209909063753E-05
(PID.TID 0000.0001) %MON trcstat_ptracer94_sd         =   1.3742135533743E-04
(PID.TID 0000.0001) %MON trcstat_ptracer94_del2       =   0.0000000000000E+00
(PID.TID 0000.0001) %MON trcstat_ptracer95_max        =   8.7784040716842E-04
(PID.TID 0000.0001) %MON trcstat_ptracer95_min        =   1.1455106270730E-34
(PID.TID 0000.0001) %MON trcstat_ptracer95_mean       =   2.6175379413905E-05
(PID.TID 0000.0001) %MON trcstat_ptracer95_sd         =   1.3721453422993E-04
(PID.TID 0000.0001) %MON trcstat_ptracer95_del2       =   0.0000000000000E+00
(PID.TID 0000.0001) %MON trcstat_ptracer96_max        =   8.7785894917750E-04
(PID.TID 0000.0001) %MON trcstat_ptracer96_min        =   3.9452493772008E-37
(PID.TID 0000.0001) %MON trcstat_ptracer96_mean       =   2.6195190275919E-05
(PID.TID 0000.0001) %MON trcstat_ptracer96_sd         =   1.3735057875900E-04
(PID.TID 0000.0001) %MON trcstat_ptracer96_del2       =   0.0000000000000E+00
(PID.TID 0000.0001) %MON trcstat_ptracer97_max        =   1.2415930925342E-07
(PID.TID 0000.0001) %MON trcstat_ptracer97_min        =   2.7697933074757E-35
(PID.TID 0000.0001) %MON trcstat_ptracer97_mean       =   1.6419666009736E-08
(PID.TID 0000.0001) %MON trcstat_ptracer97_sd         =   3.0032591276926E-08
(PID.TID 0000.0001) %MON trcstat_ptracer97_del2       =   0.0000000000000E+00
(PID.TID 0000.0001) %MON trcstat_ptracer98_max        =   1.2416000433253E-07
(PID.TID 0000.0001) %MON trcstat_ptracer98_min        =   2.7697933074757E-35
(PID.TID 0000.0001) %MON trcstat_ptracer98_mean       =   1.6419685756801E-08
(PID.TID 0000.0001) %MON trcstat_ptracer98_sd         =   3.0032657492574E-08
(PID.TID 0000.0001) %MON trcstat_ptracer98_del2       =   0.0000000000000E+00
(PID.TID 0000.0001) // =======================================================
(PID.TID 0000.0001) // End MONITOR ptracers field statistics
(PID.TID 0000.0001) // =======================================================
 Computing Diagnostic #    144  TRAC01       Counter:       1   Parms: SMR     MR      
 Computing Diagnostic #    157  TRAC02       Counter:       1   Parms: SMR     MR      
 Computing Diagnostic #    170  TRAC03       Counter:       1   Parms: SMR     MR      
 Computing Diagnostic #    183  TRAC04       Counter:       1   Parms: SMR     MR      
 Computing Diagnostic #    196  TRAC05       Counter:       1   Parms: SMR     MR      
 Computing Diagnostic #    209  TRAC06       Counter:       1   Parms: SMR     MR      
 Computing Diagnostic #    222  TRAC07       Counter:       1   Parms: SMR     MR      
 Computing Diagnostic #    235  TRAC08       Counter:       1   Parms: SMR     MR      
 Computing Diagnostic #    248  TRAC09       Counter:       1   Parms: SMR     MR      
 Computing Diagnostic #    261  TRAC10       Counter:       1   Parms: SMR     MR      
 Computing Diagnostic #    274  TRAC11       Counter:       1   Parms: SMR     MR      
 Computing Diagnostic #    287  TRAC12       Counter:       1   Parms: SMR     MR      
 Computing Diagnostic #    300  TRAC13       Counter:       1   Parms: SMR     MR      
 Computing Diagnostic #    313  TRAC14       Counter:       1   Parms: SMR     MR      
 Computing Diagnostic #    326  TRAC15       Counter:       1   Parms: SMR     MR      
 Computing Diagnostic #    339  TRAC16       Counter:       1   Parms: SMR     MR      
 Computing Diagnostic #    352  TRAC17       Counter:       1   Parms: SMR     MR      
 Computing Diagnostic #    365  TRAC18       Counter:       1   Parms: SMR     MR      
 Computing Diagnostic #    378  TRAC19       Counter:       1   Parms: SMR     MR      
 Computing Diagnostic #    391  TRAC20       Counter:       1   Parms: SMR     MR      
 Computing Diagnostic #    404  TRAC21       Counter:       1   Parms: SMR     MR      
 Computing Diagnostic #    417  TRAC22       Counter:       1   Parms: SMR     MR      
 Computing Diagnostic #    430  TRAC23       Counter:       1   Parms: SMR     MR      
 Computing Diagnostic #    443  TRAC24       Counter:       1   Parms: SMR     MR      
 Computing Diagnostic #    456  TRAC25       Counter:       1   Parms: SMR     MR      
 Computing Diagnostic #    469  TRAC26       Counter:       1   Parms: SMR     MR      
 Computing Diagnostic #    482  TRAC27       Counter:       1   Parms: SMR     MR      
 Computing Diagnostic #    495  TRAC28       Counter:       1   Parms: SMR     MR      
 Computing Diagnostic #    508  TRAC29       Counter:       1   Parms: SMR     MR      
 Computing Diagnostic #    521  TRAC30       Counter:       1   Parms: SMR     MR      
 Computing Diagnostic #    534  TRAC31       Counter:       1   Parms: SMR     MR      
 Computing Diagnostic #    547  TRAC32       Counter:       1   Parms: SMR     MR      
 Computing Diagnostic #    560  TRAC33       Counter:       1   Parms: SMR     MR      
 Computing Diagnostic #    573  TRAC34       Counter:       1   Parms: SMR     MR      
 Computing Diagnostic #    586  TRAC35       Counter:       1   Parms: SMR     MR      
 Computing Diagnostic #    599  TRAC36       Counter:       1   Parms: SMR     MR      
 Computing Diagnostic #    612  TRAC37       Counter:       1   Parms: SMR     MR      
 Computing Diagnostic #    625  TRAC38       Counter:       1   Parms: SMR     MR      
 Computing Diagnostic #    638  TRAC39       Counter:       1   Parms: SMR     MR      
 Computing Diagnostic #    651  TRAC40       Counter:       1   Parms: SMR     MR      
 Computing Diagnostic #    664  TRAC41       Counter:       1   Parms: SMR     MR      
 Computing Diagnostic #    677  TRAC42       Counter:       1   Parms: SMR     MR      
 Computing Diagnostic #    690  TRAC43       Counter:       1   Parms: SMR     MR      
 Computing Diagnostic #    703  TRAC44       Counter:       1   Parms: SMR     MR      
 Computing Diagnostic #    716  TRAC45       Counter:       1   Parms: SMR     MR      
 Computing Diagnostic #    729  TRAC46       Counter:       1   Parms: SMR     MR      
 Computing Diagnostic #    742  TRAC47       Counter:       1   Parms: SMR     MR      
 Computing Diagnostic #    755  TRAC48       Counter:       1   Parms: SMR     MR      
 Computing Diagnostic #    768  TRAC49       Counter:       1   Parms: SMR     MR      
 Computing Diagnostic #    781  TRAC50       Counter:       1   Parms: SMR     MR      
 Computing Diagnostic #    794  TRAC51       Counter:       1   Parms: SMR     MR      
 Computing Diagnostic #    807  TRAC52       Counter:       1   Parms: SMR     MR      
 Computing Diagnostic #    820  TRAC53       Counter:       1   Parms: SMR     MR      
 Computing Diagnostic #    833  TRAC54       Counter:       1   Parms: SMR     MR      
 Computing Diagnostic #    846  TRAC55       Counter:       1   Parms: SMR     MR      
 Computing Diagnostic #    859  TRAC56       Counter:       1   Parms: SMR     MR      
 Computing Diagnostic #    872  TRAC57       Counter:       1   Parms: SMR     MR      
 Computing Diagnostic #    885  TRAC58       Counter:       1   Parms: SMR     MR      
 Computing Diagnostic #    898  TRAC59       Counter:       1   Parms: SMR     MR      
 Computing Diagnostic #    911  TRAC60       Counter:       1   Parms: SMR     MR      
 Computing Diagnostic #    924  TRAC61       Counter:       1   Parms: SMR     MR      
 Computing Diagnostic #    937  TRAC62       Counter:       1   Parms: SMR     MR      
 Computing Diagnostic #    950  TRAC63       Counter:       1   Parms: SMR     MR      
 Computing Diagnostic #    963  TRAC64       Counter:       1   Parms: SMR     MR      
 Computing Diagnostic #    976  TRAC65       Counter:       1   Parms: SMR     MR      
 Computing Diagnostic #    989  TRAC66       Counter:       1   Parms: SMR     MR      
 Computing Diagnostic #   1002  TRAC67       Counter:       1   Parms: SMR     MR      
 Computing Diagnostic #   1015  TRAC68       Counter:       1   Parms: SMR     MR      
 Computing Diagnostic #   1028  TRAC69       Counter:       1   Parms: SMR     MR      
 Computing Diagnostic #   1041  TRAC70       Counter:       1   Parms: SMR     MR      
 Computing Diagnostic #   1054  TRAC71       Counter:       1   Parms: SMR     MR      
 Computing Diagnostic #   1067  TRAC72       Counter:       1   Parms: SMR     MR      
 Computing Diagnostic #   1080  TRAC73       Counter:       1   Parms: SMR     MR      
 Computing Diagnostic #   1093  TRAC74       Counter:       1   Parms: SMR     MR      
 Computing Diagnostic #   1106  TRAC75       Counter:       1   Parms: SMR     MR      
 Computing Diagnostic #   1119  TRAC76       Counter:       1   Parms: SMR     MR      
 Computing Diagnostic #   1132  TRAC77       Counter:       1   Parms: SMR     MR      
 Computing Diagnostic #   1145  TRAC78       Counter:       1   Parms: SMR     MR      
 Computing Diagnostic #   1158  TRAC79       Counter:       1   Parms: SMR     MR      
 Computing Diagnostic #   1171  TRAC80       Counter:       1   Parms: SMR     MR      
 Computing Diagnostic #   1184  TRAC81       Counter:       1   Parms: SMR     MR      
 Computing Diagnostic #   1197  TRAC82       Counter:       1   Parms: SMR     MR      
 Computing Diagnostic #   1210  TRAC83       Counter:       1   Parms: SMR     MR      
 Computing Diagnostic #   1223  TRAC84       Counter:       1   Parms: SMR     MR      
 Computing Diagnostic #   1236  TRAC85       Counter:       1   Parms: SMR     MR      
 Computing Diagnostic #   1249  TRAC86       Counter:       1   Parms: SMR     MR      
 Computing Diagnostic #   1262  TRAC87       Counter:       1   Parms: SMR     MR      
 Computing Diagnostic #   1275  TRAC88       Counter:       1   Parms: SMR     MR      
 Computing Diagnostic #   1288  TRAC89       Counter:       1   Parms: SMR     MR      
 Computing Diagnostic #   1301  TRAC90       Counter:       1   Parms: SMR     MR      
 Computing Diagnostic #   1314  TRAC91       Counter:       1   Parms: SMR     MR      
 Computing Diagnostic #   1327  TRAC92       Counter:       1   Parms: SMR     MR      
 Computing Diagnostic #   1340  TRAC93       Counter:       1   Parms: SMR     MR      
 Computing Diagnostic #   1353  TRAC94       Counter:       1   Parms: SMR     MR      
 Computing Diagnostic #   1366  TRAC95       Counter:       1   Parms: SMR     MR      
 Computing Diagnostic #   1379  TRAC96       Counter:       1   Parms: SMR     MR      
 Computing Diagnostic #   1392  TRAC97       Counter:       1   Parms: SMR     MR      
 Computing Diagnostic #   1405  TRAC98       Counter:       1   Parms: SMR     MR      
(PID.TID 0000.0001) // =======================================================
(PID.TID 0000.0001) // Begin MONITOR EXF statistics
(PID.TID 0000.0001) // =======================================================
(PID.TID 0000.0001) %MON exf_tsnumber                 =                     1
(PID.TID 0000.0001) %MON exf_time_sec                 =   3.6000000000000E+03
(PID.TID 0000.0001) %MON exf_ustress_max              =   0.0000000000000E+00
(PID.TID 0000.0001) %MON exf_ustress_min              =   0.0000000000000E+00
(PID.TID 0000.0001) %MON exf_ustress_mean             =   0.0000000000000E+00
(PID.TID 0000.0001) %MON exf_ustress_sd               =   0.0000000000000E+00
(PID.TID 0000.0001) %MON exf_ustress_del2             =   0.0000000000000E+00
(PID.TID 0000.0001) %MON exf_vstress_max              =   0.0000000000000E+00
(PID.TID 0000.0001) %MON exf_vstress_min              =   0.0000000000000E+00
(PID.TID 0000.0001) %MON exf_vstress_mean             =   0.0000000000000E+00
(PID.TID 0000.0001) %MON exf_vstress_sd               =   0.0000000000000E+00
(PID.TID 0000.0001) %MON exf_vstress_del2             =   0.0000000000000E+00
(PID.TID 0000.0001) %MON exf_hflux_max                =   0.0000000000000E+00
(PID.TID 0000.0001) %MON exf_hflux_min                =   0.0000000000000E+00
(PID.TID 0000.0001) %MON exf_hflux_mean               =   0.0000000000000E+00
(PID.TID 0000.0001) %MON exf_hflux_sd                 =   0.0000000000000E+00
(PID.TID 0000.0001) %MON exf_hflux_del2               =   0.0000000000000E+00
(PID.TID 0000.0001) %MON exf_sflux_max                =   0.0000000000000E+00
(PID.TID 0000.0001) %MON exf_sflux_min                =   0.0000000000000E+00
(PID.TID 0000.0001) %MON exf_sflux_mean               =   0.0000000000000E+00
(PID.TID 0000.0001) %MON exf_sflux_sd                 =   0.0000000000000E+00
(PID.TID 0000.0001) %MON exf_sflux_del2               =   0.0000000000000E+00
(PID.TID 0000.0001) %MON exf_uwind_max                =   0.0000000000000E+00
(PID.TID 0000.0001) %MON exf_uwind_min                =   0.0000000000000E+00
(PID.TID 0000.0001) %MON exf_uwind_mean               =   0.0000000000000E+00
(PID.TID 0000.0001) %MON exf_uwind_sd                 =   0.0000000000000E+00
(PID.TID 0000.0001) %MON exf_uwind_del2               =   0.0000000000000E+00
(PID.TID 0000.0001) %MON exf_vwind_max                =   0.0000000000000E+00
(PID.TID 0000.0001) %MON exf_vwind_min                =   0.0000000000000E+00
(PID.TID 0000.0001) %MON exf_vwind_mean               =   0.0000000000000E+00
(PID.TID 0000.0001) %MON exf_vwind_sd                 =   0.0000000000000E+00
(PID.TID 0000.0001) %MON exf_vwind_del2               =   0.0000000000000E+00
(PID.TID 0000.0001) %MON exf_wspeed_max               =   0.0000000000000E+00
(PID.TID 0000.0001) %MON exf_wspeed_min               =   0.0000000000000E+00
(PID.TID 0000.0001) %MON exf_wspeed_mean              =   0.0000000000000E+00
(PID.TID 0000.0001) %MON exf_wspeed_sd                =   0.0000000000000E+00
(PID.TID 0000.0001) %MON exf_wspeed_del2              =   0.0000000000000E+00
(PID.TID 0000.0001) %MON exf_evap_max                 =   0.0000000000000E+00
(PID.TID 0000.0001) %MON exf_evap_min                 =   0.0000000000000E+00
(PID.TID 0000.0001) %MON exf_evap_mean                =   0.0000000000000E+00
(PID.TID 0000.0001) %MON exf_evap_sd                  =   0.0000000000000E+00
(PID.TID 0000.0001) %MON exf_evap_del2                =   0.0000000000000E+00
(PID.TID 0000.0001) // =======================================================
(PID.TID 0000.0001) // End MONITOR EXF statistics
(PID.TID 0000.0001) // =======================================================
(PID.TID 0000.0001) // =======================================================
(PID.TID 0000.0001) // Begin MONITOR GUD statistics
(PID.TID 0000.0001) // =======================================================
(PID.TID 0000.0001) %MON gud_tsnumber                 =                     1
(PID.TID 0000.0001) %MON gud_time_sec                 =   3.6000000000000E+03
(PID.TID 0000.0001) %MON gud_OASIMEd01_max            =   5.1488143384457E+00
(PID.TID 0000.0001) %MON gud_OASIMEd01_min            =   5.1488143384457E+00
(PID.TID 0000.0001) %MON gud_OASIMEd01_mean           =   5.1488143384457E+00
(PID.TID 0000.0001) %MON gud_OASIMEd01_sd             =   0.0000000000000E+00
(PID.TID 0000.0001) %MON gud_OASIMEd01_del2           =   1.4563046135142E+01
(PID.TID 0000.0001) %MON gud_OASIMEd02_max            =   6.6259428633584E+00
(PID.TID 0000.0001) %MON gud_OASIMEd02_min            =   6.6259428633584E+00
(PID.TID 0000.0001) %MON gud_OASIMEd02_mean           =   6.6259428633584E+00
(PID.TID 0000.0001) %MON gud_OASIMEd02_sd             =   0.0000000000000E+00
(PID.TID 0000.0001) %MON gud_OASIMEd02_del2           =   1.8740996521741E+01
(PID.TID 0000.0001) %MON gud_OASIMEd03_max            =   8.0747629715337E+00
(PID.TID 0000.0001) %MON gud_OASIMEd03_min            =   8.0747629715337E+00
(PID.TID 0000.0001) %MON gud_OASIMEd03_mean           =   8.0747629715337E+00
(PID.TID 0000.0001) %MON gud_OASIMEd03_sd             =   0.0000000000000E+00
(PID.TID 0000.0001) %MON gud_OASIMEd03_del2           =   2.2838878614582E+01
(PID.TID 0000.0001) %MON gud_OASIMEd04_max            =   8.5091591285335E+00
(PID.TID 0000.0001) %MON gud_OASIMEd04_min            =   8.5091591285335E+00
(PID.TID 0000.0001) %MON gud_OASIMEd04_mean           =   8.5091591285335E+00
(PID.TID 0000.0001) %MON gud_OASIMEd04_sd             =   0.0000000000000E+00
(PID.TID 0000.0001) %MON gud_OASIMEd04_del2           =   2.4067536487926E+01
(PID.TID 0000.0001) %MON gud_OASIMEd05_max            =   8.5177463498380E+00
(PID.TID 0000.0001) %MON gud_OASIMEd05_min            =   8.5177463498380E+00
(PID.TID 0000.0001) %MON gud_OASIMEd05_mean           =   8.5177463498380E+00
(PID.TID 0000.0001) %MON gud_OASIMEd05_sd             =   0.0000000000000E+00
(PID.TID 0000.0001) %MON gud_OASIMEd05_del2           =   2.4091824817590E+01
(PID.TID 0000.0001) %MON gud_OASIMEd06_max            =   8.3535631444719E+00
(PID.TID 0000.0001) %MON gud_OASIMEd06_min            =   8.3535631444719E+00
(PID.TID 0000.0001) %MON gud_OASIMEd06_mean           =   8.3535631444719E+00
(PID.TID 0000.0001) %MON gud_OASIMEd06_sd             =   0.0000000000000E+00
(PID.TID 0000.0001) %MON gud_OASIMEd06_del2           =   2.3627444586104E+01
(PID.TID 0000.0001) %MON gud_OASIMEd07_max            =   8.4502077771558E+00
(PID.TID 0000.0001) %MON gud_OASIMEd07_min            =   8.4502077771558E+00
(PID.TID 0000.0001) %MON gud_OASIMEd07_mean           =   8.4502077771558E+00
(PID.TID 0000.0001) %MON gud_OASIMEd07_sd             =   0.0000000000000E+00
(PID.TID 0000.0001) %MON gud_OASIMEd07_del2           =   2.3900796886649E+01
(PID.TID 0000.0001) %MON gud_OASIMEd08_max            =   8.3198294619719E+00
(PID.TID 0000.0001) %MON gud_OASIMEd08_min            =   8.3198294619719E+00
(PID.TID 0000.0001) %MON gud_OASIMEd08_mean           =   8.3198294619719E+00
(PID.TID 0000.0001) %MON gud_OASIMEd08_sd             =   0.0000000000000E+00
(PID.TID 0000.0001) %MON gud_OASIMEd08_del2           =   2.3532031323504E+01
(PID.TID 0000.0001) %MON gud_OASIMEd09_max            =   7.8907388998402E+00
(PID.TID 0000.0001) %MON gud_OASIMEd09_min            =   7.8907388998402E+00
(PID.TID 0000.0001) %MON gud_OASIMEd09_mean           =   7.8907388998402E+00
(PID.TID 0000.0001) %MON gud_OASIMEd09_sd             =   0.0000000000000E+00
(PID.TID 0000.0001) %MON gud_OASIMEd09_del2           =   2.2318379938598E+01
(PID.TID 0000.0001) %MON gud_OASIMEd10_max            =   7.8268314725823E+00
(PID.TID 0000.0001) %MON gud_OASIMEd10_min            =   7.8268314725823E+00
(PID.TID 0000.0001) %MON gud_OASIMEd10_mean           =   7.8268314725823E+00
(PID.TID 0000.0001) %MON gud_OASIMEd10_sd             =   0.0000000000000E+00
(PID.TID 0000.0001) %MON gud_OASIMEd10_del2           =   2.2137622437869E+01
(PID.TID 0000.0001) %MON gud_OASIMEd11_max            =   7.3970040844546E+00
(PID.TID 0000.0001) %MON gud_OASIMEd11_min            =   7.3970040844546E+00
(PID.TID 0000.0001) %MON gud_OASIMEd11_mean           =   7.3970040844546E+00
(PID.TID 0000.0001) %MON gud_OASIMEd11_sd             =   0.0000000000000E+00
(PID.TID 0000.0001) %MON gud_OASIMEd11_del2           =   2.0921886994330E+01
(PID.TID 0000.0001) %MON gud_OASIMEd12_max            =   6.7449332939254E+00
(PID.TID 0000.0001) %MON gud_OASIMEd12_min            =   6.7449332939254E+00
(PID.TID 0000.0001) %MON gud_OASIMEd12_mean           =   6.7449332939254E+00
(PID.TID 0000.0001) %MON gud_OASIMEd12_sd             =   0.0000000000000E+00
(PID.TID 0000.0001) %MON gud_OASIMEd12_del2           =   1.9077552283142E+01
(PID.TID 0000.0001) %MON gud_OASIMEd13_max            =   3.3241547925605E+00
(PID.TID 0000.0001) %MON gud_OASIMEd13_min            =   3.3241547925605E+00
(PID.TID 0000.0001) %MON gud_OASIMEd13_mean           =   3.3241547925605E+00
(PID.TID 0000.0001) %MON gud_OASIMEd13_sd             =   0.0000000000000E+00
(PID.TID 0000.0001) %MON gud_OASIMEd13_del2           =   9.4021295821331E+00
(PID.TID 0000.0001) %MON gud_OASIMEs01_max            =   3.8721624715461E+00
(PID.TID 0000.0001) %MON gud_OASIMEs01_min            =   3.8721624715461E+00
(PID.TID 0000.0001) %MON gud_OASIMEs01_mean           =   3.8721624715461E+00
(PID.TID 0000.0001) %MON gud_OASIMEs01_sd             =   0.0000000000000E+00
(PID.TID 0000.0001) %MON gud_OASIMEs01_del2           =   1.0952129365945E+01
(PID.TID 0000.0001) %MON gud_OASIMEs02_max            =   4.4531742923790E+00
(PID.TID 0000.0001) %MON gud_OASIMEs02_min            =   4.4531742923790E+00
(PID.TID 0000.0001) %MON gud_OASIMEs02_mean           =   4.4531742923790E+00
(PID.TID 0000.0001) %MON gud_OASIMEs02_sd             =   0.0000000000000E+00
(PID.TID 0000.0001) %MON gud_OASIMEs02_del2           =   1.2595478959787E+01
(PID.TID 0000.0001) %MON gud_OASIMEs03_max            =   5.0471708933512E+00
(PID.TID 0000.0001) %MON gud_OASIMEs03_min            =   5.0471708933512E+00
(PID.TID 0000.0001) %MON gud_OASIMEs03_mean           =   5.0471708933512E+00
(PID.TID 0000.0001) %MON gud_OASIMEs03_sd             =   0.0000000000000E+00
(PID.TID 0000.0001) %MON gud_OASIMEs03_del2           =   1.4275555057984E+01
(PID.TID 0000.0001) %MON gud_OASIMEs04_max            =   4.9449656413661E+00
(PID.TID 0000.0001) %MON gud_OASIMEs04_min            =   4.9449656413661E+00
(PID.TID 0000.0001) %MON gud_OASIMEs04_mean           =   4.9449656413661E+00
(PID.TID 0000.0001) %MON gud_OASIMEs04_sd             =   0.0000000000000E+00
(PID.TID 0000.0001) %MON gud_OASIMEs04_del2           =   1.3986474950978E+01
(PID.TID 0000.0001) %MON gud_OASIMEs05_max            =   4.6620081279013E+00
(PID.TID 0000.0001) %MON gud_OASIMEs05_min            =   4.6620081279013E+00
(PID.TID 0000.0001) %MON gud_OASIMEs05_mean           =   4.6620081279013E+00
(PID.TID 0000.0001) %MON gud_OASIMEs05_sd             =   0.0000000000000E+00
(PID.TID 0000.0001) %MON gud_OASIMEs05_del2           =   1.3186150244743E+01
(PID.TID 0000.0001) %MON gud_OASIMEs06_max            =   4.3358669622077E+00
(PID.TID 0000.0001) %MON gud_OASIMEs06_min            =   4.3358669622077E+00
(PID.TID 0000.0001) %MON gud_OASIMEs06_mean           =   4.3358669622077E+00
(PID.TID 0000.0001) %MON gud_OASIMEs06_sd             =   0.0000000000000E+00
(PID.TID 0000.0001) %MON gud_OASIMEs06_del2           =   1.2263683725199E+01
(PID.TID 0000.0001) %MON gud_OASIMEs07_max            =   4.2115973141458E+00
(PID.TID 0000.0001) %MON gud_OASIMEs07_min            =   4.2115973141458E+00
(PID.TID 0000.0001) %MON gud_OASIMEs07_mean           =   4.2115973141458E+00
(PID.TID 0000.0001) %MON gud_OASIMEs07_sd             =   0.0000000000000E+00
(PID.TID 0000.0001) %MON gud_OASIMEs07_del2           =   1.1912196081838E+01
(PID.TID 0000.0001) %MON gud_OASIMEs08_max            =   4.0423952798049E+00
(PID.TID 0000.0001) %MON gud_OASIMEs08_min            =   4.0423952798049E+00
(PID.TID 0000.0001) %MON gud_OASIMEs08_mean           =   4.0423952798049E+00
(PID.TID 0000.0001) %MON gud_OASIMEs08_sd             =   0.0000000000000E+00
(PID.TID 0000.0001) %MON gud_OASIMEs08_del2           =   1.1433620458346E+01
(PID.TID 0000.0001) %MON gud_OASIMEs09_max            =   3.7312923898300E+00
(PID.TID 0000.0001) %MON gud_OASIMEs09_min            =   3.7312923898300E+00
(PID.TID 0000.0001) %MON gud_OASIMEs09_mean           =   3.7312923898300E+00
(PID.TID 0000.0001) %MON gud_OASIMEs09_sd             =   0.0000000000000E+00
(PID.TID 0000.0001) %MON gud_OASIMEs09_del2           =   1.0553688605754E+01
(PID.TID 0000.0001) %MON gud_OASIMEs10_max            =   3.6359325677156E+00
(PID.TID 0000.0001) %MON gud_OASIMEs10_min            =   3.6359325677156E+00
(PID.TID 0000.0001) %MON gud_OASIMEs10_mean           =   3.6359325677156E+00
(PID.TID 0000.0001) %MON gud_OASIMEs10_sd             =   0.0000000000000E+00
(PID.TID 0000.0001) %MON gud_OASIMEs10_del2           =   1.0283970298275E+01
(PID.TID 0000.0001) %MON gud_OASIMEs11_max            =   3.4215801950958E+00
(PID.TID 0000.0001) %MON gud_OASIMEs11_min            =   3.4215801950958E+00
(PID.TID 0000.0001) %MON gud_OASIMEs11_mean           =   3.4215801950958E+00
(PID.TID 0000.0001) %MON gud_OASIMEs11_sd             =   0.0000000000000E+00
(PID.TID 0000.0001) %MON gud_OASIMEs11_del2           =   9.6776902333033E+00
(PID.TID 0000.0001) %MON gud_OASIMEs12_max            =   3.0626243280040E+00
(PID.TID 0000.0001) %MON gud_OASIMEs12_min            =   3.0626243280040E+00
(PID.TID 0000.0001) %MON gud_OASIMEs12_mean           =   3.0626243280040E+00
(PID.TID 0000.0001) %MON gud_OASIMEs12_sd             =   0.0000000000000E+00
(PID.TID 0000.0001) %MON gud_OASIMEs12_del2           =   8.6624097222341E+00
(PID.TID 0000.0001) %MON gud_OASIMEs13_max            =   1.5068311421408E+00
(PID.TID 0000.0001) %MON gud_OASIMEs13_min            =   1.5068311421408E+00
(PID.TID 0000.0001) %MON gud_OASIMEs13_mean           =   1.5068311421408E+00
(PID.TID 0000.0001) %MON gud_OASIMEs13_sd             =   0.0000000000000E+00
(PID.TID 0000.0001) %MON gud_OASIMEs13_del2           =   4.2619620748432E+00
(PID.TID 0000.0001) %MON gud_surfPAR_max              =   0.0000000000000E+00
(PID.TID 0000.0001) %MON gud_surfPAR_min              =   0.0000000000000E+00
(PID.TID 0000.0001) %MON gud_surfPAR_mean             =   0.0000000000000E+00
(PID.TID 0000.0001) %MON gud_surfPAR_sd               =   0.0000000000000E+00
(PID.TID 0000.0001) %MON gud_surfPAR_del2             =   0.0000000000000E+00
(PID.TID 0000.0001) %MON gud_inputFe_max              =   9.9999999600420E-09
(PID.TID 0000.0001) %MON gud_inputFe_min              =   9.9999999600420E-09
(PID.TID 0000.0001) %MON gud_inputFe_mean             =   9.9999999600420E-09
(PID.TID 0000.0001) %MON gud_inputFe_sd               =   0.0000000000000E+00
(PID.TID 0000.0001) %MON gud_inputFe_del2             =   2.8284271134444E-08
(PID.TID 0000.0001) %MON gud_iceFrac_max              =   0.0000000000000E+00
(PID.TID 0000.0001) %MON gud_iceFrac_min              =   0.0000000000000E+00
(PID.TID 0000.0001) %MON gud_iceFrac_mean             =   0.0000000000000E+00
(PID.TID 0000.0001) %MON gud_iceFrac_sd               =   0.0000000000000E+00
(PID.TID 0000.0001) %MON gud_iceFrac_del2             =   0.0000000000000E+00
(PID.TID 0000.0001) %MON gud_windSpeed_max            =   0.0000000000000E+00
(PID.TID 0000.0001) %MON gud_windSpeed_min            =   0.0000000000000E+00
(PID.TID 0000.0001) %MON gud_windSpeed_mean           =   0.0000000000000E+00
(PID.TID 0000.0001) %MON gud_windSpeed_sd             =   0.0000000000000E+00
(PID.TID 0000.0001) %MON gud_windSpeed_del2           =   0.0000000000000E+00
(PID.TID 0000.0001) %MON gud_atmospCO2_max            =   0.0000000000000E+00
(PID.TID 0000.0001) %MON gud_atmospCO2_min            =   0.0000000000000E+00
(PID.TID 0000.0001) %MON gud_atmospCO2_mean           =   0.0000000000000E+00
(PID.TID 0000.0001) %MON gud_atmospCO2_sd             =   0.0000000000000E+00
(PID.TID 0000.0001) %MON gud_atmospCO2_del2           =   0.0000000000000E+00
(PID.TID 0000.0001) // =======================================================
(PID.TID 0000.0001) // End MONITOR GUD statistics
(PID.TID 0000.0001) // =======================================================
 Local pointing vectors
 no(2) =   0.27363063147685535      -0.12470066308196398       0.95371695074822704     
 ea(2) =   0.41469324265623930       0.90996127087654310        0.0000000000000000     
 up(2) =   0.86784548855935806      -0.39549997488200311      -0.30070579950427312     
(PID.TID 0000.0001) // =======================================================
(PID.TID 0000.0001) // Begin MONITOR dynamic field statistics
(PID.TID 0000.0001) // =======================================================
(PID.TID 0000.0001) %MON time_tsnumber                =                     2
(PID.TID 0000.0001) %MON time_secondsf                =   7.2000000000000E+03
(PID.TID 0000.0001) %MON dynstat_eta_max              =   0.0000000000000E+00
(PID.TID 0000.0001) %MON dynstat_eta_min              =   0.0000000000000E+00
(PID.TID 0000.0001) %MON dynstat_eta_mean             =   0.0000000000000E+00
(PID.TID 0000.0001) %MON dynstat_eta_sd               =   0.0000000000000E+00
(PID.TID 0000.0001) %MON dynstat_eta_del2             =   0.0000000000000E+00
(PID.TID 0000.0001) %MON dynstat_uvel_max             =   0.0000000000000E+00
(PID.TID 0000.0001) %MON dynstat_uvel_min             =   0.0000000000000E+00
(PID.TID 0000.0001) %MON dynstat_uvel_mean            =   0.0000000000000E+00
(PID.TID 0000.0001) %MON dynstat_uvel_sd              =   0.0000000000000E+00
(PID.TID 0000.0001) %MON dynstat_uvel_del2            =   0.0000000000000E+00
(PID.TID 0000.0001) %MON dynstat_vvel_max             =   0.0000000000000E+00
(PID.TID 0000.0001) %MON dynstat_vvel_min             =   0.0000000000000E+00
(PID.TID 0000.0001) %MON dynstat_vvel_mean            =   0.0000000000000E+00
(PID.TID 0000.0001) %MON dynstat_vvel_sd              =   0.0000000000000E+00
(PID.TID 0000.0001) %MON dynstat_vvel_del2            =   0.0000000000000E+00
(PID.TID 0000.0001) %MON dynstat_wvel_max             =   0.0000000000000E+00
(PID.TID 0000.0001) %MON dynstat_wvel_min             =   0.0000000000000E+00
(PID.TID 0000.0001) %MON dynstat_wvel_mean            =   0.0000000000000E+00
(PID.TID 0000.0001) %MON dynstat_wvel_sd              =   0.0000000000000E+00
(PID.TID 0000.0001) %MON dynstat_wvel_del2            =   0.0000000000000E+00
(PID.TID 0000.0001) %MON dynstat_theta_max            =   2.6326133202983E+01
(PID.TID 0000.0001) %MON dynstat_theta_min            =   2.6737005429265E+00
(PID.TID 0000.0001) %MON dynstat_theta_mean           =   5.4735411526788E+00
(PID.TID 0000.0001) %MON dynstat_theta_sd             =   5.1969661225680E+00
(PID.TID 0000.0001) %MON dynstat_theta_del2           =   0.0000000000000E+00
(PID.TID 0000.0001) %MON dynstat_salt_max             =   3.5000000000000E+01
(PID.TID 0000.0001) %MON dynstat_salt_min             =   3.5000000000000E+01
(PID.TID 0000.0001) %MON dynstat_salt_mean            =   3.5000000000000E+01
(PID.TID 0000.0001) %MON dynstat_salt_sd              =   7.1054273576010E-15
(PID.TID 0000.0001) %MON dynstat_salt_del2            =   0.0000000000000E+00
(PID.TID 0000.0001) %MON dynstat_sst_max              =   2.6326133202983E+01
(PID.TID 0000.0001) %MON dynstat_sst_min              =   2.6326133202983E+01
(PID.TID 0000.0001) %MON dynstat_sst_mean             =   2.6326133202983E+01
(PID.TID 0000.0001) %MON dynstat_sst_sd               =   0.0000000000000E+00
(PID.TID 0000.0001) %MON dynstat_sst_del2             =   0.0000000000000E+00
(PID.TID 0000.0001) %MON dynstat_sss_max              =   3.5000000000000E+01
(PID.TID 0000.0001) %MON dynstat_sss_min              =   3.5000000000000E+01
(PID.TID 0000.0001) %MON dynstat_sss_mean             =   3.5000000000000E+01
(PID.TID 0000.0001) %MON dynstat_sss_sd               =   0.0000000000000E+00
(PID.TID 0000.0001) %MON dynstat_sss_del2             =   0.0000000000000E+00
(PID.TID 0000.0001) %MON forcing_qnet_max             =   0.0000000000000E+00
(PID.TID 0000.0001) %MON forcing_qnet_min             =   0.0000000000000E+00
(PID.TID 0000.0001) %MON forcing_qnet_mean            =   0.0000000000000E+00
(PID.TID 0000.0001) %MON forcing_qnet_sd              =   0.0000000000000E+00
(PID.TID 0000.0001) %MON forcing_qnet_del2            =   0.0000000000000E+00
(PID.TID 0000.0001) %MON forcing_qsw_max              =   0.0000000000000E+00
(PID.TID 0000.0001) %MON forcing_qsw_min              =   0.0000000000000E+00
(PID.TID 0000.0001) %MON forcing_qsw_mean             =   0.0000000000000E+00
(PID.TID 0000.0001) %MON forcing_qsw_sd               =   0.0000000000000E+00
(PID.TID 0000.0001) %MON forcing_qsw_del2             =   0.0000000000000E+00
(PID.TID 0000.0001) %MON forcing_empmr_max            =   0.0000000000000E+00
(PID.TID 0000.0001) %MON forcing_empmr_min            =   0.0000000000000E+00
(PID.TID 0000.0001) %MON forcing_empmr_mean           =   0.0000000000000E+00
(PID.TID 0000.0001) %MON forcing_empmr_sd             =   0.0000000000000E+00
(PID.TID 0000.0001) %MON forcing_empmr_del2           =   0.0000000000000E+00
(PID.TID 0000.0001) %MON forcing_fu_max               =   0.0000000000000E+00
(PID.TID 0000.0001) %MON forcing_fu_min               =   0.0000000000000E+00
(PID.TID 0000.0001) %MON forcing_fu_mean              =   0.0000000000000E+00
(PID.TID 0000.0001) %MON forcing_fu_sd                =   0.0000000000000E+00
(PID.TID 0000.0001) %MON forcing_fu_del2              =   0.0000000000000E+00
(PID.TID 0000.0001) %MON forcing_fv_max               =   0.0000000000000E+00
(PID.TID 0000.0001) %MON forcing_fv_min               =   0.0000000000000E+00
(PID.TID 0000.0001) %MON forcing_fv_mean              =   0.0000000000000E+00
(PID.TID 0000.0001) %MON forcing_fv_sd                =   0.0000000000000E+00
(PID.TID 0000.0001) %MON forcing_fv_del2              =   0.0000000000000E+00
(PID.TID 0000.0001) %MON advcfl_uvel_max              =   0.0000000000000E+00
(PID.TID 0000.0001) %MON advcfl_vvel_max              =   0.0000000000000E+00
(PID.TID 0000.0001) %MON advcfl_wvel_max              =   0.0000000000000E+00
(PID.TID 0000.0001) %MON advcfl_W_hf_max              =   0.0000000000000E+00
(PID.TID 0000.0001) %MON pe_b_mean                    =   0.0000000000000E+00
(PID.TID 0000.0001) %MON ke_max                       =   0.0000000000000E+00
(PID.TID 0000.0001) %MON ke_mean                      =   0.0000000000000E+00
(PID.TID 0000.0001) %MON ke_vol                       =   4.1199767883485E+13
(PID.TID 0000.0001) %MON vort_r_min                   =   0.0000000000000E+00
(PID.TID 0000.0001) %MON vort_r_max                   =   0.0000000000000E+00
(PID.TID 0000.0001) %MON vort_a_mean                  =  -4.5067801836625E-05
(PID.TID 0000.0001) %MON vort_a_sd                    =  -4.1359030627651E-25
(PID.TID 0000.0001) %MON vort_p_mean                  =  -4.5067801836625E-05
(PID.TID 0000.0001) %MON vort_p_sd                    =   0.0000000000000E+00
(PID.TID 0000.0001) %MON surfExpan_theta_mean         =   0.0000000000000E+00
(PID.TID 0000.0001) %MON surfExpan_salt_mean          =   0.0000000000000E+00
(PID.TID 0000.0001) // =======================================================
(PID.TID 0000.0001) // End MONITOR dynamic field statistics
(PID.TID 0000.0001) // =======================================================
(PID.TID 0000.0001) // =======================================================
(PID.TID 0000.0001) // Begin MONITOR ptracer field statistics
(PID.TID 0000.0001) // =======================================================
(PID.TID 0000.0001) %MON trcstat_ptracer01_max        =   2.0000000001278E+03
(PID.TID 0000.0001) %MON trcstat_ptracer01_min        =   1.9999997133844E+03
(PID.TID 0000.0001) %MON trcstat_ptracer01_mean       =   1.9999999987151E+03
(PID.TID 0000.0001) %MON trcstat_ptracer01_sd         =   1.6927090167886E-05
(PID.TID 0000.0001) %MON trcstat_ptracer01_del2       =   0.0000000000000E+00
(PID.TID 0000.0001) %MON trcstat_ptracer02_max        =   2.1551882137653E-02
(PID.TID 0000.0001) %MON trcstat_ptracer02_min        =   1.5766837834224E-07
(PID.TID 0000.0001) %MON trcstat_ptracer02_mean       =   5.2667256445394E-04
(PID.TID 0000.0001) %MON trcstat_ptracer02_sd         =   2.8281841549566E-03
(PID.TID 0000.0001) %MON trcstat_ptracer02_del2       =   0.0000000000000E+00
(PID.TID 0000.0001) %MON trcstat_ptracer03_max        =   1.8602375813718E-02
(PID.TID 0000.0001) %MON trcstat_ptracer03_min        =   3.8773192252470E-06
(PID.TID 0000.0001) %MON trcstat_ptracer03_mean       =   6.7930730752103E-04
(PID.TID 0000.0001) %MON trcstat_ptracer03_sd         =   2.1493178028088E-03
(PID.TID 0000.0001) %MON trcstat_ptracer03_del2       =   0.0000000000000E+00
(PID.TID 0000.0001) %MON trcstat_ptracer04_max        =   3.3903496291100E+01
(PID.TID 0000.0001) %MON trcstat_ptracer04_min        =   4.6535032190544E-02
(PID.TID 0000.0001) %MON trcstat_ptracer04_mean       =   2.3502394785060E+01
(PID.TID 0000.0001) %MON trcstat_ptracer04_sd         =   7.8161876221136E+00
(PID.TID 0000.0001) %MON trcstat_ptracer04_del2       =   0.0000000000000E+00
(PID.TID 0000.0001) %MON trcstat_ptracer05_max        =   2.2436995925166E+00
(PID.TID 0000.0001) %MON trcstat_ptracer05_min        =   2.1025599478849E-01
(PID.TID 0000.0001) %MON trcstat_ptracer05_mean       =   1.5821339136594E+00
(PID.TID 0000.0001) %MON trcstat_ptracer05_sd         =   4.6734984099341E-01
(PID.TID 0000.0001) %MON trcstat_ptracer05_del2       =   0.0000000000000E+00
(PID.TID 0000.0001) %MON trcstat_ptracer06_max        =   3.9387401115092E+01
(PID.TID 0000.0001) %MON trcstat_ptracer06_min        =   1.2248097703875E+00
(PID.TID 0000.0001) %MON trcstat_ptracer06_mean       =   2.9621890295847E+01
(PID.TID 0000.0001) %MON trcstat_ptracer06_sd         =   1.1270584252237E+01
(PID.TID 0000.0001) %MON trcstat_ptracer06_del2       =   0.0000000000000E+00
(PID.TID 0000.0001) %MON trcstat_ptracer07_max        =   1.3002605958184E-03
(PID.TID 0000.0001) %MON trcstat_ptracer07_min        =   1.2999707823365E-03
(PID.TID 0000.0001) %MON trcstat_ptracer07_mean       =   1.2999717745771E-03
(PID.TID 0000.0001) %MON trcstat_ptracer07_sd         =   1.5488071562775E-08
(PID.TID 0000.0001) %MON trcstat_ptracer07_del2       =   0.0000000000000E+00
(PID.TID 0000.0001) %MON trcstat_ptracer08_max        =   4.0011795562951E-03
(PID.TID 0000.0001) %MON trcstat_ptracer08_min        =  -1.0806123070596E-06
(PID.TID 0000.0001) %MON trcstat_ptracer08_mean       =   3.6607619935676E-05
(PID.TID 0000.0001) %MON trcstat_ptracer08_sd         =   2.6507867546849E-04
(PID.TID 0000.0001) %MON trcstat_ptracer08_del2       =   0.0000000000000E+00
(PID.TID 0000.0001) %MON trcstat_ptracer09_max        =   8.2279326290772E-02
(PID.TID 0000.0001) %MON trcstat_ptracer09_min        =   3.0657552148505E-08
(PID.TID 0000.0001) %MON trcstat_ptracer09_mean       =   3.4398866882735E-03
(PID.TID 0000.0001) %MON trcstat_ptracer09_sd         =   1.4803361250616E-02
(PID.TID 0000.0001) %MON trcstat_ptracer09_del2       =   0.0000000000000E+00
(PID.TID 0000.0001) %MON trcstat_ptracer10_max        =   5.1424578931732E-03
(PID.TID 0000.0001) %MON trcstat_ptracer10_min        =   1.9160970092816E-09
(PID.TID 0000.0001) %MON trcstat_ptracer10_mean       =   2.1499291801709E-04
(PID.TID 0000.0001) %MON trcstat_ptracer10_sd         =   9.2521007816349E-04
(PID.TID 0000.0001) %MON trcstat_ptracer10_del2       =   0.0000000000000E+00
(PID.TID 0000.0001) %MON trcstat_ptracer11_max        =   5.1424578820148E-06
(PID.TID 0000.0001) %MON trcstat_ptracer11_min        =   1.9160967947862E-12
(PID.TID 0000.0001) %MON trcstat_ptracer11_mean       =   2.1499291832422E-07
(PID.TID 0000.0001) %MON trcstat_ptracer11_sd         =   9.2521007780695E-07
(PID.TID 0000.0001) %MON trcstat_ptracer11_del2       =   0.0000000000000E+00
(PID.TID 0000.0001) %MON trcstat_ptracer12_max        =   2.0659571939676E-04
(PID.TID 0000.0001) %MON trcstat_ptracer12_min        =   1.3353030997667E-33
(PID.TID 0000.0001) %MON trcstat_ptracer12_mean       =   6.1625386963069E-06
(PID.TID 0000.0001) %MON trcstat_ptracer12_sd         =   3.2267337197533E-05
(PID.TID 0000.0001) %MON trcstat_ptracer12_del2       =   0.0000000000000E+00
(PID.TID 0000.0001) %MON trcstat_ptracer13_max        =   4.3519536431214E-03
(PID.TID 0000.0001) %MON trcstat_ptracer13_min        =   1.8797873544542E-05
(PID.TID 0000.0001) %MON trcstat_ptracer13_mean       =   1.2616270433581E-03
(PID.TID 0000.0001) %MON trcstat_ptracer13_sd         =   1.5439342030114E-03
(PID.TID 0000.0001) %MON trcstat_ptracer13_del2       =   0.0000000000000E+00
(PID.TID 0000.0001) %MON trcstat_ptracer14_max        =   2.7199710269509E-04
(PID.TID 0000.0001) %MON trcstat_ptracer14_min        =   1.1748670965339E-06
(PID.TID 0000.0001) %MON trcstat_ptracer14_mean       =   7.8851690209878E-05
(PID.TID 0000.0001) %MON trcstat_ptracer14_sd         =   9.6495887688212E-05
(PID.TID 0000.0001) %MON trcstat_ptracer14_del2       =   0.0000000000000E+00
(PID.TID 0000.0001) %MON trcstat_ptracer15_max        =   1.6246073438269E-02
(PID.TID 0000.0001) %MON trcstat_ptracer15_min        =   1.1391880996625E-03
(PID.TID 0000.0001) %MON trcstat_ptracer15_mean       =   5.4884963888055E-03
(PID.TID 0000.0001) %MON trcstat_ptracer15_sd         =   5.1699312772803E-03
(PID.TID 0000.0001) %MON trcstat_ptracer15_del2       =   0.0000000000000E+00
(PID.TID 0000.0001) %MON trcstat_ptracer16_max        =   2.7199711852782E-07
(PID.TID 0000.0001) %MON trcstat_ptracer16_min        =   1.1748669679955E-09
(PID.TID 0000.0001) %MON trcstat_ptracer16_mean       =   7.8851690735621E-08
(PID.TID 0000.0001) %MON trcstat_ptracer16_sd         =   9.6495889744568E-08
(PID.TID 0000.0001) %MON trcstat_ptracer16_del2       =   0.0000000000000E+00
(PID.TID 0000.0001) %MON trcstat_ptracer17_max        =   0.0000000000000E+00
(PID.TID 0000.0001) %MON trcstat_ptracer17_min        =   0.0000000000000E+00
(PID.TID 0000.0001) %MON trcstat_ptracer17_mean       =   0.0000000000000E+00
(PID.TID 0000.0001) %MON trcstat_ptracer17_sd         =   0.0000000000000E+00
(PID.TID 0000.0001) %MON trcstat_ptracer17_del2       =   0.0000000000000E+00
(PID.TID 0000.0001) %MON trcstat_ptracer18_max        =   5.1095337176421E-03
(PID.TID 0000.0001) %MON trcstat_ptracer18_min        =   3.9108009920168E-11
(PID.TID 0000.0001) %MON trcstat_ptracer18_mean       =   2.1452091319645E-04
(PID.TID 0000.0001) %MON trcstat_ptracer18_sd         =   9.2335861521948E-04
(PID.TID 0000.0001) %MON trcstat_ptracer18_del2       =   0.0000000000000E+00
(PID.TID 0000.0001) %MON trcstat_ptracer19_max        =   8.7415769256738E-04
(PID.TID 0000.0001) %MON trcstat_ptracer19_min        =   8.3435696679806E-32
(PID.TID 0000.0001) %MON trcstat_ptracer19_mean       =   2.6066315330501E-05
(PID.TID 0000.0001) %MON trcstat_ptracer19_sd         =   1.3662472610142E-04
(PID.TID 0000.0001) %MON trcstat_ptracer19_del2       =   0.0000000000000E+00
(PID.TID 0000.0001) %MON trcstat_ptracer20_max        =   8.7419460956712E-04
(PID.TID 0000.0001) %MON trcstat_ptracer20_min        =   1.9693622911397E-36
(PID.TID 0000.0001) %MON trcstat_ptracer20_mean       =   2.6105917166704E-05
(PID.TID 0000.0001) %MON trcstat_ptracer20_sd         =   1.3689728688092E-04
(PID.TID 0000.0001) %MON trcstat_ptracer20_del2       =   0.0000000000000E+00
(PID.TID 0000.0001) %MON trcstat_ptracer21_max        =   8.7415769256738E-04
(PID.TID 0000.0001) %MON trcstat_ptracer21_min        =   8.3435696679806E-32
(PID.TID 0000.0001) %MON trcstat_ptracer21_mean       =   2.6066315330502E-05
(PID.TID 0000.0001) %MON trcstat_ptracer21_sd         =   1.3662472610142E-04
(PID.TID 0000.0001) %MON trcstat_ptracer21_del2       =   0.0000000000000E+00
(PID.TID 0000.0001) %MON trcstat_ptracer22_max        =   8.7415789699639E-04
(PID.TID 0000.0001) %MON trcstat_ptracer22_min        =   8.3435696679806E-32
(PID.TID 0000.0001) %MON trcstat_ptracer22_mean       =   2.6122558738030E-05
(PID.TID 0000.0001) %MON trcstat_ptracer22_sd         =   1.3696225807521E-04
(PID.TID 0000.0001) %MON trcstat_ptracer22_del2       =   0.0000000000000E+00
(PID.TID 0000.0001) %MON trcstat_ptracer23_max        =   8.7419465551862E-04
(PID.TID 0000.0001) %MON trcstat_ptracer23_min        =   1.9693622911397E-36
(PID.TID 0000.0001) %MON trcstat_ptracer23_mean       =   2.6143117610225E-05
(PID.TID 0000.0001) %MON trcstat_ptracer23_sd         =   1.3712232373844E-04
(PID.TID 0000.0001) %MON trcstat_ptracer23_del2       =   0.0000000000000E+00
(PID.TID 0000.0001) %MON trcstat_ptracer24_max        =   8.7419459121901E-04
(PID.TID 0000.0001) %MON trcstat_ptracer24_min        =   1.9693622911397E-36
(PID.TID 0000.0001) %MON trcstat_ptracer24_mean       =   2.6066315326712E-05
(PID.TID 0000.0001) %MON trcstat_ptracer24_sd         =   1.3665955859180E-04
(PID.TID 0000.0001) %MON trcstat_ptracer24_del2       =   0.0000000000000E+00
(PID.TID 0000.0001) %MON trcstat_ptracer25_max        =   8.7419459535335E-04
(PID.TID 0000.0001) %MON trcstat_ptracer25_min        =   1.9693622911397E-36
(PID.TID 0000.0001) %MON trcstat_ptracer25_mean       =   2.6087017476030E-05
(PID.TID 0000.0001) %MON trcstat_ptracer25_sd         =   1.3678342568291E-04
(PID.TID 0000.0001) %MON trcstat_ptracer25_del2       =   0.0000000000000E+00
(PID.TID 0000.0001) %MON trcstat_ptracer26_max        =   8.7419459121901E-04
(PID.TID 0000.0001) %MON trcstat_ptracer26_min        =   1.9693622911397E-36
(PID.TID 0000.0001) %MON trcstat_ptracer26_mean       =   2.6066315326710E-05
(PID.TID 0000.0001) %MON trcstat_ptracer26_sd         =   1.3665955859178E-04
(PID.TID 0000.0001) %MON trcstat_ptracer26_del2       =   0.0000000000000E+00
(PID.TID 0000.0001) %MON trcstat_ptracer27_max        =   8.7419462532979E-04
(PID.TID 0000.0001) %MON trcstat_ptracer27_min        =   1.9693622911397E-36
(PID.TID 0000.0001) %MON trcstat_ptracer27_mean       =   2.6068438732819E-05
(PID.TID 0000.0001) %MON trcstat_ptracer27_sd         =   1.3667248441529E-04
(PID.TID 0000.0001) %MON trcstat_ptracer27_del2       =   0.0000000000000E+00
(PID.TID 0000.0001) %MON trcstat_ptracer28_max        =   8.7419464341602E-04
(PID.TID 0000.0001) %MON trcstat_ptracer28_min        =   1.9693622911397E-36
(PID.TID 0000.0001) %MON trcstat_ptracer28_mean       =   2.6149661834230E-05
(PID.TID 0000.0001) %MON trcstat_ptracer28_sd         =   1.3716181824008E-04
(PID.TID 0000.0001) %MON trcstat_ptracer28_del2       =   0.0000000000000E+00
(PID.TID 0000.0001) %MON trcstat_ptracer29_max        =   8.7419459121901E-04
(PID.TID 0000.0001) %MON trcstat_ptracer29_min        =   1.9693622911397E-36
(PID.TID 0000.0001) %MON trcstat_ptracer29_mean       =   2.6066315326715E-05
(PID.TID 0000.0001) %MON trcstat_ptracer29_sd         =   1.3665955859181E-04
(PID.TID 0000.0001) %MON trcstat_ptracer29_del2       =   0.0000000000000E+00
(PID.TID 0000.0001) %MON trcstat_ptracer30_max        =   8.7419459121901E-04
(PID.TID 0000.0001) %MON trcstat_ptracer30_min        =   1.9693622911397E-36
(PID.TID 0000.0001) %MON trcstat_ptracer30_mean       =   2.6066315326710E-05
(PID.TID 0000.0001) %MON trcstat_ptracer30_sd         =   1.3665955859178E-04
(PID.TID 0000.0001) %MON trcstat_ptracer30_del2       =   0.0000000000000E+00
(PID.TID 0000.0001) %MON trcstat_ptracer31_max        =   8.7415769243191E-04
(PID.TID 0000.0001) %MON trcstat_ptracer31_min        =   8.3435696679805E-32
(PID.TID 0000.0001) %MON trcstat_ptracer31_mean       =   2.6066315326715E-05
(PID.TID 0000.0001) %MON trcstat_ptracer31_sd         =   1.3662472608103E-04
(PID.TID 0000.0001) %MON trcstat_ptracer31_del2       =   0.0000000000000E+00
(PID.TID 0000.0001) %MON trcstat_ptracer32_max        =   8.7419459121901E-04
(PID.TID 0000.0001) %MON trcstat_ptracer32_min        =   1.9693622911397E-36
(PID.TID 0000.0001) %MON trcstat_ptracer32_mean       =   2.6066315326710E-05
(PID.TID 0000.0001) %MON trcstat_ptracer32_sd         =   1.3665955859179E-04
(PID.TID 0000.0001) %MON trcstat_ptracer32_del2       =   0.0000000000000E+00
(PID.TID 0000.0001) %MON trcstat_ptracer33_max        =   8.7419460123432E-04
(PID.TID 0000.0001) %MON trcstat_ptracer33_min        =   1.9693622911397E-36
(PID.TID 0000.0001) %MON trcstat_ptracer33_mean       =   2.6126460542478E-05
(PID.TID 0000.0001) %MON trcstat_ptracer33_sd         =   1.3702109460957E-04
(PID.TID 0000.0001) %MON trcstat_ptracer33_del2       =   0.0000000000000E+00
(PID.TID 0000.0001) %MON trcstat_ptracer34_max        =   8.7415769256738E-04
(PID.TID 0000.0001) %MON trcstat_ptracer34_min        =   8.3435696679806E-32
(PID.TID 0000.0001) %MON trcstat_ptracer34_mean       =   2.6066315330502E-05
(PID.TID 0000.0001) %MON trcstat_ptracer34_sd         =   1.3662472610142E-04
(PID.TID 0000.0001) %MON trcstat_ptracer34_del2       =   0.0000000000000E+00
(PID.TID 0000.0001) %MON trcstat_ptracer35_max        =   8.7415769256738E-04
(PID.TID 0000.0001) %MON trcstat_ptracer35_min        =   8.3435696679806E-32
(PID.TID 0000.0001) %MON trcstat_ptracer35_mean       =   2.6066315330502E-05
(PID.TID 0000.0001) %MON trcstat_ptracer35_sd         =   1.3662472610142E-04
(PID.TID 0000.0001) %MON trcstat_ptracer35_del2       =   0.0000000000000E+00
(PID.TID 0000.0001) %MON trcstat_ptracer36_max        =   8.7419459121901E-04
(PID.TID 0000.0001) %MON trcstat_ptracer36_min        =   1.9693622911397E-36
(PID.TID 0000.0001) %MON trcstat_ptracer36_mean       =   2.6066315326716E-05
(PID.TID 0000.0001) %MON trcstat_ptracer36_sd         =   1.3665955859182E-04
(PID.TID 0000.0001) %MON trcstat_ptracer36_del2       =   0.0000000000000E+00
(PID.TID 0000.0001) %MON trcstat_ptracer37_max        =   8.7415785855700E-04
(PID.TID 0000.0001) %MON trcstat_ptracer37_min        =   8.3435696679806E-32
(PID.TID 0000.0001) %MON trcstat_ptracer37_mean       =   2.6092821963666E-05
(PID.TID 0000.0001) %MON trcstat_ptracer37_sd         =   1.3678369390445E-04
(PID.TID 0000.0001) %MON trcstat_ptracer37_del2       =   0.0000000000000E+00
(PID.TID 0000.0001) %MON trcstat_ptracer38_max        =   8.7415769243191E-04
(PID.TID 0000.0001) %MON trcstat_ptracer38_min        =   8.3435696679805E-32
(PID.TID 0000.0001) %MON trcstat_ptracer38_mean       =   2.6066315326715E-05
(PID.TID 0000.0001) %MON trcstat_ptracer38_sd         =   1.3662472608103E-04
(PID.TID 0000.0001) %MON trcstat_ptracer38_del2       =   0.0000000000000E+00
(PID.TID 0000.0001) %MON trcstat_ptracer39_max        =   8.7415786773829E-04
(PID.TID 0000.0001) %MON trcstat_ptracer39_min        =   8.3435696679805E-32
(PID.TID 0000.0001) %MON trcstat_ptracer39_mean       =   2.6069914985965E-05
(PID.TID 0000.0001) %MON trcstat_ptracer39_sd         =   1.3664653351698E-04
(PID.TID 0000.0001) %MON trcstat_ptracer39_del2       =   0.0000000000000E+00
(PID.TID 0000.0001) %MON trcstat_ptracer40_max        =   8.7415786408754E-04
(PID.TID 0000.0001) %MON trcstat_ptracer40_min        =   8.3435696679806E-32
(PID.TID 0000.0001) %MON trcstat_ptracer40_mean       =   2.6140021580513E-05
(PID.TID 0000.0001) %MON trcstat_ptracer40_sd         =   1.3706727250039E-04
(PID.TID 0000.0001) %MON trcstat_ptracer40_del2       =   0.0000000000000E+00
(PID.TID 0000.0001) %MON trcstat_ptracer41_max        =   8.7419459121901E-04
(PID.TID 0000.0001) %MON trcstat_ptracer41_min        =   1.9693622911397E-36
(PID.TID 0000.0001) %MON trcstat_ptracer41_mean       =   2.6066315326711E-05
(PID.TID 0000.0001) %MON trcstat_ptracer41_sd         =   1.3665955859179E-04
(PID.TID 0000.0001) %MON trcstat_ptracer41_del2       =   0.0000000000000E+00
(PID.TID 0000.0001) %MON trcstat_ptracer42_max        =   8.7415769243191E-04
(PID.TID 0000.0001) %MON trcstat_ptracer42_min        =   8.3435696679805E-32
(PID.TID 0000.0001) %MON trcstat_ptracer42_mean       =   2.6066315326714E-05
(PID.TID 0000.0001) %MON trcstat_ptracer42_sd         =   1.3662472608102E-04
(PID.TID 0000.0001) %MON trcstat_ptracer42_del2       =   0.0000000000000E+00
(PID.TID 0000.0001) %MON trcstat_ptracer43_max        =   8.7419459121901E-04
(PID.TID 0000.0001) %MON trcstat_ptracer43_min        =   1.9693622911397E-36
(PID.TID 0000.0001) %MON trcstat_ptracer43_mean       =   2.6066315326710E-05
(PID.TID 0000.0001) %MON trcstat_ptracer43_sd         =   1.3665955859178E-04
(PID.TID 0000.0001) %MON trcstat_ptracer43_del2       =   0.0000000000000E+00
(PID.TID 0000.0001) %MON trcstat_ptracer44_max        =   8.7419459121901E-04
(PID.TID 0000.0001) %MON trcstat_ptracer44_min        =   1.9693622911397E-36
(PID.TID 0000.0001) %MON trcstat_ptracer44_mean       =   2.6066315326710E-05
(PID.TID 0000.0001) %MON trcstat_ptracer44_sd         =   1.3665955859178E-04
(PID.TID 0000.0001) %MON trcstat_ptracer44_del2       =   0.0000000000000E+00
(PID.TID 0000.0001) %MON trcstat_ptracer45_max        =   8.7419459121901E-04
(PID.TID 0000.0001) %MON trcstat_ptracer45_min        =   1.9693622911397E-36
(PID.TID 0000.0001) %MON trcstat_ptracer45_mean       =   2.6066315326710E-05
(PID.TID 0000.0001) %MON trcstat_ptracer45_sd         =   1.3665955859179E-04
(PID.TID 0000.0001) %MON trcstat_ptracer45_del2       =   0.0000000000000E+00
(PID.TID 0000.0001) %MON trcstat_ptracer46_max        =   8.7419459121901E-04
(PID.TID 0000.0001) %MON trcstat_ptracer46_min        =   1.9693622911397E-36
(PID.TID 0000.0001) %MON trcstat_ptracer46_mean       =   2.6066315326710E-05
(PID.TID 0000.0001) %MON trcstat_ptracer46_sd         =   1.3665955859179E-04
(PID.TID 0000.0001) %MON trcstat_ptracer46_del2       =   0.0000000000000E+00
(PID.TID 0000.0001) %MON trcstat_ptracer47_max        =   8.7415787457133E-04
(PID.TID 0000.0001) %MON trcstat_ptracer47_min        =   8.3435696679805E-32
(PID.TID 0000.0001) %MON trcstat_ptracer47_mean       =   2.6139818411233E-05
(PID.TID 0000.0001) %MON trcstat_ptracer47_sd         =   1.3706607780149E-04
(PID.TID 0000.0001) %MON trcstat_ptracer47_del2       =   0.0000000000000E+00
(PID.TID 0000.0001) %MON trcstat_ptracer48_max        =   8.7419459121901E-04
(PID.TID 0000.0001) %MON trcstat_ptracer48_min        =   1.9693622911397E-36
(PID.TID 0000.0001) %MON trcstat_ptracer48_mean       =   2.6066315326717E-05
(PID.TID 0000.0001) %MON trcstat_ptracer48_sd         =   1.3665955859182E-04
(PID.TID 0000.0001) %MON trcstat_ptracer48_del2       =   0.0000000000000E+00
(PID.TID 0000.0001) %MON trcstat_ptracer49_max        =   8.7415786114651E-04
(PID.TID 0000.0001) %MON trcstat_ptracer49_min        =   8.3435696679805E-32
(PID.TID 0000.0001) %MON trcstat_ptracer49_mean       =   2.6141603116287E-05
(PID.TID 0000.0001) %MON trcstat_ptracer49_sd         =   1.3707680713833E-04
(PID.TID 0000.0001) %MON trcstat_ptracer49_del2       =   0.0000000000000E+00
(PID.TID 0000.0001) %MON trcstat_ptracer50_max        =   8.7419460088774E-04
(PID.TID 0000.0001) %MON trcstat_ptracer50_min        =   1.9693622911397E-36
(PID.TID 0000.0001) %MON trcstat_ptracer50_mean       =   2.6119898157710E-05
(PID.TID 0000.0001) %MON trcstat_ptracer50_sd         =   1.3698140007033E-04
(PID.TID 0000.0001) %MON trcstat_ptracer50_del2       =   0.0000000000000E+00
(PID.TID 0000.0001) %MON trcstat_ptracer51_max        =   8.7415785130735E-04
(PID.TID 0000.0001) %MON trcstat_ptracer51_min        =   8.3435696679805E-32
(PID.TID 0000.0001) %MON trcstat_ptracer51_mean       =   2.6098806577340E-05
(PID.TID 0000.0001) %MON trcstat_ptracer51_sd         =   1.3681953913502E-04
(PID.TID 0000.0001) %MON trcstat_ptracer51_del2       =   0.0000000000000E+00
(PID.TID 0000.0001) %MON trcstat_ptracer52_max        =   8.7419464210952E-04
(PID.TID 0000.0001) %MON trcstat_ptracer52_min        =   1.9693622911397E-36
(PID.TID 0000.0001) %MON trcstat_ptracer52_mean       =   2.6136722285015E-05
(PID.TID 0000.0001) %MON trcstat_ptracer52_sd         =   1.3708351597071E-04
(PID.TID 0000.0001) %MON trcstat_ptracer52_del2       =   0.0000000000000E+00
(PID.TID 0000.0001) %MON trcstat_ptracer53_max        =   8.7419459121901E-04
(PID.TID 0000.0001) %MON trcstat_ptracer53_min        =   1.9693622911397E-36
(PID.TID 0000.0001) %MON trcstat_ptracer53_mean       =   2.6066315326713E-05
(PID.TID 0000.0001) %MON trcstat_ptracer53_sd         =   1.3665955859180E-04
(PID.TID 0000.0001) %MON trcstat_ptracer53_del2       =   0.0000000000000E+00
(PID.TID 0000.0001) %MON trcstat_ptracer54_max        =   8.7415769256738E-04
(PID.TID 0000.0001) %MON trcstat_ptracer54_min        =   8.3435696679806E-32
(PID.TID 0000.0001) %MON trcstat_ptracer54_mean       =   2.6066315330500E-05
(PID.TID 0000.0001) %MON trcstat_ptracer54_sd         =   1.3662472610141E-04
(PID.TID 0000.0001) %MON trcstat_ptracer54_del2       =   0.0000000000000E+00
(PID.TID 0000.0001) %MON trcstat_ptracer55_max        =   8.7419459121901E-04
(PID.TID 0000.0001) %MON trcstat_ptracer55_min        =   1.9693622911397E-36
(PID.TID 0000.0001) %MON trcstat_ptracer55_mean       =   2.6066315326713E-05
(PID.TID 0000.0001) %MON trcstat_ptracer55_sd         =   1.3665955859180E-04
(PID.TID 0000.0001) %MON trcstat_ptracer55_del2       =   0.0000000000000E+00
(PID.TID 0000.0001) %MON trcstat_ptracer56_max        =   8.7419459121901E-04
(PID.TID 0000.0001) %MON trcstat_ptracer56_min        =   1.9693622911397E-36
(PID.TID 0000.0001) %MON trcstat_ptracer56_mean       =   2.6066315326717E-05
(PID.TID 0000.0001) %MON trcstat_ptracer56_sd         =   1.3665955859183E-04
(PID.TID 0000.0001) %MON trcstat_ptracer56_del2       =   0.0000000000000E+00
(PID.TID 0000.0001) %MON trcstat_ptracer57_max        =   8.7419459121901E-04
(PID.TID 0000.0001) %MON trcstat_ptracer57_min        =   1.9693622911397E-36
(PID.TID 0000.0001) %MON trcstat_ptracer57_mean       =   2.6066315326714E-05
(PID.TID 0000.0001) %MON trcstat_ptracer57_sd         =   1.3665955859181E-04
(PID.TID 0000.0001) %MON trcstat_ptracer57_del2       =   0.0000000000000E+00
(PID.TID 0000.0001) %MON trcstat_ptracer58_max        =   8.7415769256738E-04
(PID.TID 0000.0001) %MON trcstat_ptracer58_min        =   8.3435696679806E-32
(PID.TID 0000.0001) %MON trcstat_ptracer58_mean       =   2.6066315330502E-05
(PID.TID 0000.0001) %MON trcstat_ptracer58_sd         =   1.3662472610142E-04
(PID.TID 0000.0001) %MON trcstat_ptracer58_del2       =   0.0000000000000E+00
(PID.TID 0000.0001) %MON trcstat_ptracer59_max        =   8.7419459121901E-04
(PID.TID 0000.0001) %MON trcstat_ptracer59_min        =   1.9693622911397E-36
(PID.TID 0000.0001) %MON trcstat_ptracer59_mean       =   2.6066315326712E-05
(PID.TID 0000.0001) %MON trcstat_ptracer59_sd         =   1.3665955859179E-04
(PID.TID 0000.0001) %MON trcstat_ptracer59_del2       =   0.0000000000000E+00
(PID.TID 0000.0001) %MON trcstat_ptracer60_max        =   8.7415769243191E-04
(PID.TID 0000.0001) %MON trcstat_ptracer60_min        =   8.3435696679805E-32
(PID.TID 0000.0001) %MON trcstat_ptracer60_mean       =   2.6066315326715E-05
(PID.TID 0000.0001) %MON trcstat_ptracer60_sd         =   1.3662472608103E-04
(PID.TID 0000.0001) %MON trcstat_ptracer60_del2       =   0.0000000000000E+00
(PID.TID 0000.0001) %MON trcstat_ptracer61_max        =   8.7419459121901E-04
(PID.TID 0000.0001) %MON trcstat_ptracer61_min        =   1.9693622911397E-36
(PID.TID 0000.0001) %MON trcstat_ptracer61_mean       =   2.6066315326717E-05
(PID.TID 0000.0001) %MON trcstat_ptracer61_sd         =   1.3665955859182E-04
(PID.TID 0000.0001) %MON trcstat_ptracer61_del2       =   0.0000000000000E+00
(PID.TID 0000.0001) %MON trcstat_ptracer62_max        =   8.7415769243191E-04
(PID.TID 0000.0001) %MON trcstat_ptracer62_min        =   8.3435696679805E-32
(PID.TID 0000.0001) %MON trcstat_ptracer62_mean       =   2.6066315326714E-05
(PID.TID 0000.0001) %MON trcstat_ptracer62_sd         =   1.3662472608102E-04
(PID.TID 0000.0001) %MON trcstat_ptracer62_del2       =   0.0000000000000E+00
(PID.TID 0000.0001) %MON trcstat_ptracer63_max        =   8.7419459804812E-04
(PID.TID 0000.0001) %MON trcstat_ptracer63_min        =   1.9693622911397E-36
(PID.TID 0000.0001) %MON trcstat_ptracer63_mean       =   2.6097440043784E-05
(PID.TID 0000.0001) %MON trcstat_ptracer63_sd         =   1.3684603295793E-04
(PID.TID 0000.0001) %MON trcstat_ptracer63_del2       =   0.0000000000000E+00
(PID.TID 0000.0001) %MON trcstat_ptracer64_max        =   8.7415783029874E-04
(PID.TID 0000.0001) %MON trcstat_ptracer64_min        =   8.3435696679805E-32
(PID.TID 0000.0001) %MON trcstat_ptracer64_mean       =   2.6137560048884E-05
(PID.TID 0000.0001) %MON trcstat_ptracer64_sd         =   1.3705230321133E-04
(PID.TID 0000.0001) %MON trcstat_ptracer64_del2       =   0.0000000000000E+00
(PID.TID 0000.0001) %MON trcstat_ptracer65_max        =   8.7415769243191E-04
(PID.TID 0000.0001) %MON trcstat_ptracer65_min        =   8.3435696679805E-32
(PID.TID 0000.0001) %MON trcstat_ptracer65_mean       =   2.6066315326716E-05
(PID.TID 0000.0001) %MON trcstat_ptracer65_sd         =   1.3662472608104E-04
(PID.TID 0000.0001) %MON trcstat_ptracer65_del2       =   0.0000000000000E+00
(PID.TID 0000.0001) %MON trcstat_ptracer66_max        =   8.7415769243191E-04
(PID.TID 0000.0001) %MON trcstat_ptracer66_min        =   8.3435696679805E-32
(PID.TID 0000.0001) %MON trcstat_ptracer66_mean       =   2.6066315326716E-05
(PID.TID 0000.0001) %MON trcstat_ptracer66_sd         =   1.3662472608104E-04
(PID.TID 0000.0001) %MON trcstat_ptracer66_del2       =   0.0000000000000E+00
(PID.TID 0000.0001) %MON trcstat_ptracer67_max        =   8.7415769243191E-04
(PID.TID 0000.0001) %MON trcstat_ptracer67_min        =   8.3435696679805E-32
(PID.TID 0000.0001) %MON trcstat_ptracer67_mean       =   2.6066315326715E-05
(PID.TID 0000.0001) %MON trcstat_ptracer67_sd         =   1.3662472608103E-04
(PID.TID 0000.0001) %MON trcstat_ptracer67_del2       =   0.0000000000000E+00
(PID.TID 0000.0001) %MON trcstat_ptracer68_max        =   8.7419460606082E-04
(PID.TID 0000.0001) %MON trcstat_ptracer68_min        =   1.9693622911397E-36
(PID.TID 0000.0001) %MON trcstat_ptracer68_mean       =   2.6099199960600E-05
(PID.TID 0000.0001) %MON trcstat_ptracer68_sd         =   1.3685693391717E-04
(PID.TID 0000.0001) %MON trcstat_ptracer68_del2       =   0.0000000000000E+00
(PID.TID 0000.0001) %MON trcstat_ptracer69_max        =   8.7419459121901E-04
(PID.TID 0000.0001) %MON trcstat_ptracer69_min        =   1.9693622911397E-36
(PID.TID 0000.0001) %MON trcstat_ptracer69_mean       =   2.6066315326718E-05
(PID.TID 0000.0001) %MON trcstat_ptracer69_sd         =   1.3665955859183E-04
(PID.TID 0000.0001) %MON trcstat_ptracer69_del2       =   0.0000000000000E+00
(PID.TID 0000.0001) %MON trcstat_ptracer70_max        =   8.7415769256738E-04
(PID.TID 0000.0001) %MON trcstat_ptracer70_min        =   8.3435696679806E-32
(PID.TID 0000.0001) %MON trcstat_ptracer70_mean       =   2.6066315330502E-05
(PID.TID 0000.0001) %MON trcstat_ptracer70_sd         =   1.3662472610142E-04
(PID.TID 0000.0001) %MON trcstat_ptracer70_del2       =   0.0000000000000E+00
(PID.TID 0000.0001) %MON trcstat_ptracer71_max        =   8.7415769256738E-04
(PID.TID 0000.0001) %MON trcstat_ptracer71_min        =   8.3435696679806E-32
(PID.TID 0000.0001) %MON trcstat_ptracer71_mean       =   2.6066315330501E-05
(PID.TID 0000.0001) %MON trcstat_ptracer71_sd         =   1.3662472610142E-04
(PID.TID 0000.0001) %MON trcstat_ptracer71_del2       =   0.0000000000000E+00
(PID.TID 0000.0001) %MON trcstat_ptracer72_max        =   8.7415769243191E-04
(PID.TID 0000.0001) %MON trcstat_ptracer72_min        =   8.3435696679805E-32
(PID.TID 0000.0001) %MON trcstat_ptracer72_mean       =   2.6066315326714E-05
(PID.TID 0000.0001) %MON trcstat_ptracer72_sd         =   1.3662472608102E-04
(PID.TID 0000.0001) %MON trcstat_ptracer72_del2       =   0.0000000000000E+00
(PID.TID 0000.0001) %MON trcstat_ptracer73_max        =   8.7415784598889E-04
(PID.TID 0000.0001) %MON trcstat_ptracer73_min        =   8.3435696679805E-32
(PID.TID 0000.0001) %MON trcstat_ptracer73_mean       =   2.6138845937653E-05
(PID.TID 0000.0001) %MON trcstat_ptracer73_sd         =   1.3706011661686E-04
(PID.TID 0000.0001) %MON trcstat_ptracer73_del2       =   0.0000000000000E+00
(PID.TID 0000.0001) %MON trcstat_ptracer74_max        =   8.7415769256738E-04
(PID.TID 0000.0001) %MON trcstat_ptracer74_min        =   8.3435696679806E-32
(PID.TID 0000.0001) %MON trcstat_ptracer74_mean       =   2.6066315330502E-05
(PID.TID 0000.0001) %MON trcstat_ptracer74_sd         =   1.3662472610142E-04
(PID.TID 0000.0001) %MON trcstat_ptracer74_del2       =   0.0000000000000E+00
(PID.TID 0000.0001) %MON trcstat_ptracer75_max        =   8.7415787331707E-04
(PID.TID 0000.0001) %MON trcstat_ptracer75_min        =   8.3435696679805E-32
(PID.TID 0000.0001) %MON trcstat_ptracer75_mean       =   2.6145545841911E-05
(PID.TID 0000.0001) %MON trcstat_ptracer75_sd         =   1.3710065861353E-04
(PID.TID 0000.0001) %MON trcstat_ptracer75_del2       =   0.0000000000000E+00
(PID.TID 0000.0001) %MON trcstat_ptracer76_max        =   8.7415787309674E-04
(PID.TID 0000.0001) %MON trcstat_ptracer76_min        =   8.3435696679806E-32
(PID.TID 0000.0001) %MON trcstat_ptracer76_mean       =   2.6086331536986E-05
(PID.TID 0000.0001) %MON trcstat_ptracer76_sd         =   1.3674487539166E-04
(PID.TID 0000.0001) %MON trcstat_ptracer76_del2       =   0.0000000000000E+00
(PID.TID 0000.0001) %MON trcstat_ptracer77_max        =   8.7415769243191E-04
(PID.TID 0000.0001) %MON trcstat_ptracer77_min        =   8.3435696679805E-32
(PID.TID 0000.0001) %MON trcstat_ptracer77_mean       =   2.6066315326717E-05
(PID.TID 0000.0001) %MON trcstat_ptracer77_sd         =   1.3662472608104E-04
(PID.TID 0000.0001) %MON trcstat_ptracer77_del2       =   0.0000000000000E+00
(PID.TID 0000.0001) %MON trcstat_ptracer78_max        =   8.7415785429570E-04
(PID.TID 0000.0001) %MON trcstat_ptracer78_min        =   8.3435696679805E-32
(PID.TID 0000.0001) %MON trcstat_ptracer78_mean       =   2.6073405607339E-05
(PID.TID 0000.0001) %MON trcstat_ptracer78_sd         =   1.3666743300831E-04
(PID.TID 0000.0001) %MON trcstat_ptracer78_del2       =   0.0000000000000E+00
(PID.TID 0000.0001) %MON trcstat_ptracer79_max        =   8.7415769243191E-04
(PID.TID 0000.0001) %MON trcstat_ptracer79_min        =   8.3435696679805E-32
(PID.TID 0000.0001) %MON trcstat_ptracer79_mean       =   2.6066315326715E-05
(PID.TID 0000.0001) %MON trcstat_ptracer79_sd         =   1.3662472608103E-04
(PID.TID 0000.0001) %MON trcstat_ptracer79_del2       =   0.0000000000000E+00
(PID.TID 0000.0001) %MON trcstat_ptracer80_max        =   8.7415769243191E-04
(PID.TID 0000.0001) %MON trcstat_ptracer80_min        =   8.3435696679805E-32
(PID.TID 0000.0001) %MON trcstat_ptracer80_mean       =   2.6066315326713E-05
(PID.TID 0000.0001) %MON trcstat_ptracer80_sd         =   1.3662472608102E-04
(PID.TID 0000.0001) %MON trcstat_ptracer80_del2       =   0.0000000000000E+00
(PID.TID 0000.0001) %MON trcstat_ptracer81_max        =   8.7415788389027E-04
(PID.TID 0000.0001) %MON trcstat_ptracer81_min        =   8.3435696679806E-32
(PID.TID 0000.0001) %MON trcstat_ptracer81_mean       =   2.6109189710703E-05
(PID.TID 0000.0001) %MON trcstat_ptracer81_sd         =   1.3688192063948E-04
(PID.TID 0000.0001) %MON trcstat_ptracer81_del2       =   0.0000000000000E+00
(PID.TID 0000.0001) %MON trcstat_ptracer82_max        =   8.7419459121901E-04
(PID.TID 0000.0001) %MON trcstat_ptracer82_min        =   1.9693622911397E-36
(PID.TID 0000.0001) %MON trcstat_ptracer82_mean       =   2.6066315326712E-05
(PID.TID 0000.0001) %MON trcstat_ptracer82_sd         =   1.3665955859179E-04
(PID.TID 0000.0001) %MON trcstat_ptracer82_del2       =   0.0000000000000E+00
(PID.TID 0000.0001) %MON trcstat_ptracer83_max        =   8.7415769256738E-04
(PID.TID 0000.0001) %MON trcstat_ptracer83_min        =   8.3435696679806E-32
(PID.TID 0000.0001) %MON trcstat_ptracer83_mean       =   2.6066315330500E-05
(PID.TID 0000.0001) %MON trcstat_ptracer83_sd         =   1.3662472610141E-04
(PID.TID 0000.0001) %MON trcstat_ptracer83_del2       =   0.0000000000000E+00
(PID.TID 0000.0001) %MON trcstat_ptracer84_max        =   8.7419459121901E-04
(PID.TID 0000.0001) %MON trcstat_ptracer84_min        =   1.9693622911397E-36
(PID.TID 0000.0001) %MON trcstat_ptracer84_mean       =   2.6066315326710E-05
(PID.TID 0000.0001) %MON trcstat_ptracer84_sd         =   1.3665955859178E-04
(PID.TID 0000.0001) %MON trcstat_ptracer84_del2       =   0.0000000000000E+00
(PID.TID 0000.0001) %MON trcstat_ptracer85_max        =   8.7415769243191E-04
(PID.TID 0000.0001) %MON trcstat_ptracer85_min        =   8.3435696679805E-32
(PID.TID 0000.0001) %MON trcstat_ptracer85_mean       =   2.6066315326715E-05
(PID.TID 0000.0001) %MON trcstat_ptracer85_sd         =   1.3662472608103E-04
(PID.TID 0000.0001) %MON trcstat_ptracer85_del2       =   0.0000000000000E+00
(PID.TID 0000.0001) %MON trcstat_ptracer86_max        =   8.7415787828639E-04
(PID.TID 0000.0001) %MON trcstat_ptracer86_min        =   8.3435696679806E-32
(PID.TID 0000.0001) %MON trcstat_ptracer86_mean       =   2.6077944781749E-05
(PID.TID 0000.0001) %MON trcstat_ptracer86_sd         =   1.3669467528320E-04
(PID.TID 0000.0001) %MON trcstat_ptracer86_del2       =   0.0000000000000E+00
(PID.TID 0000.0001) %MON trcstat_ptracer87_max        =   8.7419460896503E-04
(PID.TID 0000.0001) %MON trcstat_ptracer87_min        =   1.9693622911397E-36
(PID.TID 0000.0001) %MON trcstat_ptracer87_mean       =   2.6123710458267E-05
(PID.TID 0000.0001) %MON trcstat_ptracer87_sd         =   1.3700452528318E-04
(PID.TID 0000.0001) %MON trcstat_ptracer87_del2       =   0.0000000000000E+00
(PID.TID 0000.0001) %MON trcstat_ptracer88_max        =   8.7419459121901E-04
(PID.TID 0000.0001) %MON trcstat_ptracer88_min        =   1.9693622911397E-36
(PID.TID 0000.0001) %MON trcstat_ptracer88_mean       =   2.6066315326712E-05
(PID.TID 0000.0001) %MON trcstat_ptracer88_sd         =   1.3665955859179E-04
(PID.TID 0000.0001) %MON trcstat_ptracer88_del2       =   0.0000000000000E+00
(PID.TID 0000.0001) %MON trcstat_ptracer89_max        =   8.7419459121901E-04
(PID.TID 0000.0001) %MON trcstat_ptracer89_min        =   1.9693622911397E-36
(PID.TID 0000.0001) %MON trcstat_ptracer89_mean       =   2.6066315326711E-05
(PID.TID 0000.0001) %MON trcstat_ptracer89_sd         =   1.3665955859179E-04
(PID.TID 0000.0001) %MON trcstat_ptracer89_del2       =   0.0000000000000E+00
(PID.TID 0000.0001) %MON trcstat_ptracer90_max        =   8.7415769256738E-04
(PID.TID 0000.0001) %MON trcstat_ptracer90_min        =   8.3435696679806E-32
(PID.TID 0000.0001) %MON trcstat_ptracer90_mean       =   2.6066315330502E-05
(PID.TID 0000.0001) %MON trcstat_ptracer90_sd         =   1.3662472610142E-04
(PID.TID 0000.0001) %MON trcstat_ptracer90_del2       =   0.0000000000000E+00
(PID.TID 0000.0001) %MON trcstat_ptracer91_max        =   8.7419459121901E-04
(PID.TID 0000.0001) %MON trcstat_ptracer91_min        =   1.9693622911397E-36
(PID.TID 0000.0001) %MON trcstat_ptracer91_mean       =   2.6066315326711E-05
(PID.TID 0000.0001) %MON trcstat_ptracer91_sd         =   1.3665955859179E-04
(PID.TID 0000.0001) %MON trcstat_ptracer91_del2       =   0.0000000000000E+00
(PID.TID 0000.0001) %MON trcstat_ptracer92_max        =   8.7415785578299E-04
(PID.TID 0000.0001) %MON trcstat_ptracer92_min        =   8.3435696679805E-32
(PID.TID 0000.0001) %MON trcstat_ptracer92_mean       =   2.6073393787174E-05
(PID.TID 0000.0001) %MON trcstat_ptracer92_sd         =   1.3666737879066E-04
(PID.TID 0000.0001) %MON trcstat_ptracer92_del2       =   0.0000000000000E+00
(PID.TID 0000.0001) %MON trcstat_ptracer93_max        =   8.7415769256738E-04
(PID.TID 0000.0001) %MON trcstat_ptracer93_min        =   8.3435696679806E-32
(PID.TID 0000.0001) %MON trcstat_ptracer93_mean       =   2.6066315330500E-05
(PID.TID 0000.0001) %MON trcstat_ptracer93_sd         =   1.3662472610141E-04
(PID.TID 0000.0001) %MON trcstat_ptracer93_del2       =   0.0000000000000E+00
(PID.TID 0000.0001) %MON trcstat_ptracer94_max        =   8.7415784000027E-04
(PID.TID 0000.0001) %MON trcstat_ptracer94_min        =   8.3435696679806E-32
(PID.TID 0000.0001) %MON trcstat_ptracer94_mean       =   2.6135413212282E-05
(PID.TID 0000.0001) %MON trcstat_ptracer94_sd         =   1.3703938172938E-04
(PID.TID 0000.0001) %MON trcstat_ptracer94_del2       =   0.0000000000000E+00
(PID.TID 0000.0001) %MON trcstat_ptracer95_max        =   8.7415769243191E-04
(PID.TID 0000.0001) %MON trcstat_ptracer95_min        =   8.3435696679805E-32
(PID.TID 0000.0001) %MON trcstat_ptracer95_mean       =   2.6066315326713E-05
(PID.TID 0000.0001) %MON trcstat_ptracer95_sd         =   1.3662472608102E-04
(PID.TID 0000.0001) %MON trcstat_ptracer95_del2       =   0.0000000000000E+00
(PID.TID 0000.0001) %MON trcstat_ptracer96_max        =   8.7419459940600E-04
(PID.TID 0000.0001) %MON trcstat_ptracer96_min        =   1.9693622911397E-36
(PID.TID 0000.0001) %MON trcstat_ptracer96_mean       =   2.6105930922912E-05
(PID.TID 0000.0001) %MON trcstat_ptracer96_sd         =   1.3689712357560E-04
(PID.TID 0000.0001) %MON trcstat_ptracer96_del2       =   0.0000000000000E+00
(PID.TID 0000.0001) %MON trcstat_ptracer97_max        =   1.2399032698387E-07
(PID.TID 0000.0001) %MON trcstat_ptracer97_min        =   1.3829727579957E-34
(PID.TID 0000.0001) %MON trcstat_ptracer97_mean       =   1.6396963154533E-08
(PID.TID 0000.0001) %MON trcstat_ptracer97_sd         =   2.9991151775485E-08
(PID.TID 0000.0001) %MON trcstat_ptracer97_del2       =   0.0000000000000E+00
(PID.TID 0000.0001) %MON trcstat_ptracer98_max        =   1.2399171256230E-07
(PID.TID 0000.0001) %MON trcstat_ptracer98_min        =   1.3829727579959E-34
(PID.TID 0000.0001) %MON trcstat_ptracer98_mean       =   1.6397002518275E-08
(PID.TID 0000.0001) %MON trcstat_ptracer98_sd         =   2.9991283761228E-08
(PID.TID 0000.0001) %MON trcstat_ptracer98_del2       =   0.0000000000000E+00
(PID.TID 0000.0001) // =======================================================
(PID.TID 0000.0001) // End MONITOR ptracers field statistics
(PID.TID 0000.0001) // =======================================================
 Computing Diagnostic #    144  TRAC01       Counter:       1   Parms: SMR     MR      
 Computing Diagnostic #    157  TRAC02       Counter:       1   Parms: SMR     MR      
 Computing Diagnostic #    170  TRAC03       Counter:       1   Parms: SMR     MR      
 Computing Diagnostic #    183  TRAC04       Counter:       1   Parms: SMR     MR      
 Computing Diagnostic #    196  TRAC05       Counter:       1   Parms: SMR     MR      
 Computing Diagnostic #    209  TRAC06       Counter:       1   Parms: SMR     MR      
 Computing Diagnostic #    222  TRAC07       Counter:       1   Parms: SMR     MR      
 Computing Diagnostic #    235  TRAC08       Counter:       1   Parms: SMR     MR      
 Computing Diagnostic #    248  TRAC09       Counter:       1   Parms: SMR     MR      
 Computing Diagnostic #    261  TRAC10       Counter:       1   Parms: SMR     MR      
 Computing Diagnostic #    274  TRAC11       Counter:       1   Parms: SMR     MR      
 Computing Diagnostic #    287  TRAC12       Counter:       1   Parms: SMR     MR      
 Computing Diagnostic #    300  TRAC13       Counter:       1   Parms: SMR     MR      
 Computing Diagnostic #    313  TRAC14       Counter:       1   Parms: SMR     MR      
 Computing Diagnostic #    326  TRAC15       Counter:       1   Parms: SMR     MR      
 Computing Diagnostic #    339  TRAC16       Counter:       1   Parms: SMR     MR      
 Computing Diagnostic #    352  TRAC17       Counter:       1   Parms: SMR     MR      
 Computing Diagnostic #    365  TRAC18       Counter:       1   Parms: SMR     MR      
 Computing Diagnostic #    378  TRAC19       Counter:       1   Parms: SMR     MR      
 Computing Diagnostic #    391  TRAC20       Counter:       1   Parms: SMR     MR      
 Computing Diagnostic #    404  TRAC21       Counter:       1   Parms: SMR     MR      
 Computing Diagnostic #    417  TRAC22       Counter:       1   Parms: SMR     MR      
 Computing Diagnostic #    430  TRAC23       Counter:       1   Parms: SMR     MR      
 Computing Diagnostic #    443  TRAC24       Counter:       1   Parms: SMR     MR      
 Computing Diagnostic #    456  TRAC25       Counter:       1   Parms: SMR     MR      
 Computing Diagnostic #    469  TRAC26       Counter:       1   Parms: SMR     MR      
 Computing Diagnostic #    482  TRAC27       Counter:       1   Parms: SMR     MR      
 Computing Diagnostic #    495  TRAC28       Counter:       1   Parms: SMR     MR      
 Computing Diagnostic #    508  TRAC29       Counter:       1   Parms: SMR     MR      
 Computing Diagnostic #    521  TRAC30       Counter:       1   Parms: SMR     MR      
 Computing Diagnostic #    534  TRAC31       Counter:       1   Parms: SMR     MR      
 Computing Diagnostic #    547  TRAC32       Counter:       1   Parms: SMR     MR      
 Computing Diagnostic #    560  TRAC33       Counter:       1   Parms: SMR     MR      
 Computing Diagnostic #    573  TRAC34       Counter:       1   Parms: SMR     MR      
 Computing Diagnostic #    586  TRAC35       Counter:       1   Parms: SMR     MR      
 Computing Diagnostic #    599  TRAC36       Counter:       1   Parms: SMR     MR      
 Computing Diagnostic #    612  TRAC37       Counter:       1   Parms: SMR     MR      
 Computing Diagnostic #    625  TRAC38       Counter:       1   Parms: SMR     MR      
 Computing Diagnostic #    638  TRAC39       Counter:       1   Parms: SMR     MR      
 Computing Diagnostic #    651  TRAC40       Counter:       1   Parms: SMR     MR      
 Computing Diagnostic #    664  TRAC41       Counter:       1   Parms: SMR     MR      
 Computing Diagnostic #    677  TRAC42       Counter:       1   Parms: SMR     MR      
 Computing Diagnostic #    690  TRAC43       Counter:       1   Parms: SMR     MR      
 Computing Diagnostic #    703  TRAC44       Counter:       1   Parms: SMR     MR      
 Computing Diagnostic #    716  TRAC45       Counter:       1   Parms: SMR     MR      
 Computing Diagnostic #    729  TRAC46       Counter:       1   Parms: SMR     MR      
 Computing Diagnostic #    742  TRAC47       Counter:       1   Parms: SMR     MR      
 Computing Diagnostic #    755  TRAC48       Counter:       1   Parms: SMR     MR      
 Computing Diagnostic #    768  TRAC49       Counter:       1   Parms: SMR     MR      
 Computing Diagnostic #    781  TRAC50       Counter:       1   Parms: SMR     MR      
 Computing Diagnostic #    794  TRAC51       Counter:       1   Parms: SMR     MR      
 Computing Diagnostic #    807  TRAC52       Counter:       1   Parms: SMR     MR      
 Computing Diagnostic #    820  TRAC53       Counter:       1   Parms: SMR     MR      
 Computing Diagnostic #    833  TRAC54       Counter:       1   Parms: SMR     MR      
 Computing Diagnostic #    846  TRAC55       Counter:       1   Parms: SMR     MR      
 Computing Diagnostic #    859  TRAC56       Counter:       1   Parms: SMR     MR      
 Computing Diagnostic #    872  TRAC57       Counter:       1   Parms: SMR     MR      
 Computing Diagnostic #    885  TRAC58       Counter:       1   Parms: SMR     MR      
 Computing Diagnostic #    898  TRAC59       Counter:       1   Parms: SMR     MR      
 Computing Diagnostic #    911  TRAC60       Counter:       1   Parms: SMR     MR      
 Computing Diagnostic #    924  TRAC61       Counter:       1   Parms: SMR     MR      
 Computing Diagnostic #    937  TRAC62       Counter:       1   Parms: SMR     MR      
 Computing Diagnostic #    950  TRAC63       Counter:       1   Parms: SMR     MR      
 Computing Diagnostic #    963  TRAC64       Counter:       1   Parms: SMR     MR      
 Computing Diagnostic #    976  TRAC65       Counter:       1   Parms: SMR     MR      
 Computing Diagnostic #    989  TRAC66       Counter:       1   Parms: SMR     MR      
 Computing Diagnostic #   1002  TRAC67       Counter:       1   Parms: SMR     MR      
 Computing Diagnostic #   1015  TRAC68       Counter:       1   Parms: SMR     MR      
 Computing Diagnostic #   1028  TRAC69       Counter:       1   Parms: SMR     MR      
 Computing Diagnostic #   1041  TRAC70       Counter:       1   Parms: SMR     MR      
 Computing Diagnostic #   1054  TRAC71       Counter:       1   Parms: SMR     MR      
 Computing Diagnostic #   1067  TRAC72       Counter:       1   Parms: SMR     MR      
 Computing Diagnostic #   1080  TRAC73       Counter:       1   Parms: SMR     MR      
 Computing Diagnostic #   1093  TRAC74       Counter:       1   Parms: SMR     MR      
 Computing Diagnostic #   1106  TRAC75       Counter:       1   Parms: SMR     MR      
 Computing Diagnostic #   1119  TRAC76       Counter:       1   Parms: SMR     MR      
 Computing Diagnostic #   1132  TRAC77       Counter:       1   Parms: SMR     MR      
 Computing Diagnostic #   1145  TRAC78       Counter:       1   Parms: SMR     MR      
 Computing Diagnostic #   1158  TRAC79       Counter:       1   Parms: SMR     MR      
 Computing Diagnostic #   1171  TRAC80       Counter:       1   Parms: SMR     MR      
 Computing Diagnostic #   1184  TRAC81       Counter:       1   Parms: SMR     MR      
 Computing Diagnostic #   1197  TRAC82       Counter:       1   Parms: SMR     MR      
 Computing Diagnostic #   1210  TRAC83       Counter:       1   Parms: SMR     MR      
 Computing Diagnostic #   1223  TRAC84       Counter:       1   Parms: SMR     MR      
 Computing Diagnostic #   1236  TRAC85       Counter:       1   Parms: SMR     MR      
 Computing Diagnostic #   1249  TRAC86       Counter:       1   Parms: SMR     MR      
 Computing Diagnostic #   1262  TRAC87       Counter:       1   Parms: SMR     MR      
 Computing Diagnostic #   1275  TRAC88       Counter:       1   Parms: SMR     MR      
 Computing Diagnostic #   1288  TRAC89       Counter:       1   Parms: SMR     MR      
 Computing Diagnostic #   1301  TRAC90       Counter:       1   Parms: SMR     MR      
 Computing Diagnostic #   1314  TRAC91       Counter:       1   Parms: SMR     MR      
 Computing Diagnostic #   1327  TRAC92       Counter:       1   Parms: SMR     MR      
 Computing Diagnostic #   1340  TRAC93       Counter:       1   Parms: SMR     MR      
 Computing Diagnostic #   1353  TRAC94       Counter:       1   Parms: SMR     MR      
 Computing Diagnostic #   1366  TRAC95       Counter:       1   Parms: SMR     MR      
 Computing Diagnostic #   1379  TRAC96       Counter:       1   Parms: SMR     MR      
 Computing Diagnostic #   1392  TRAC97       Counter:       1   Parms: SMR     MR      
 Computing Diagnostic #   1405  TRAC98       Counter:       1   Parms: SMR     MR      
(PID.TID 0000.0001) // =======================================================
(PID.TID 0000.0001) // Begin MONITOR EXF statistics
(PID.TID 0000.0001) // =======================================================
(PID.TID 0000.0001) %MON exf_tsnumber                 =                     2
(PID.TID 0000.0001) %MON exf_time_sec                 =   7.2000000000000E+03
(PID.TID 0000.0001) %MON exf_ustress_max              =   0.0000000000000E+00
(PID.TID 0000.0001) %MON exf_ustress_min              =   0.0000000000000E+00
(PID.TID 0000.0001) %MON exf_ustress_mean             =   0.0000000000000E+00
(PID.TID 0000.0001) %MON exf_ustress_sd               =   0.0000000000000E+00
(PID.TID 0000.0001) %MON exf_ustress_del2             =   0.0000000000000E+00
(PID.TID 0000.0001) %MON exf_vstress_max              =   0.0000000000000E+00
(PID.TID 0000.0001) %MON exf_vstress_min              =   0.0000000000000E+00
(PID.TID 0000.0001) %MON exf_vstress_mean             =   0.0000000000000E+00
(PID.TID 0000.0001) %MON exf_vstress_sd               =   0.0000000000000E+00
(PID.TID 0000.0001) %MON exf_vstress_del2             =   0.0000000000000E+00
(PID.TID 0000.0001) %MON exf_hflux_max                =   0.0000000000000E+00
(PID.TID 0000.0001) %MON exf_hflux_min                =   0.0000000000000E+00
(PID.TID 0000.0001) %MON exf_hflux_mean               =   0.0000000000000E+00
(PID.TID 0000.0001) %MON exf_hflux_sd                 =   0.0000000000000E+00
(PID.TID 0000.0001) %MON exf_hflux_del2               =   0.0000000000000E+00
(PID.TID 0000.0001) %MON exf_sflux_max                =   0.0000000000000E+00
(PID.TID 0000.0001) %MON exf_sflux_min                =   0.0000000000000E+00
(PID.TID 0000.0001) %MON exf_sflux_mean               =   0.0000000000000E+00
(PID.TID 0000.0001) %MON exf_sflux_sd                 =   0.0000000000000E+00
(PID.TID 0000.0001) %MON exf_sflux_del2               =   0.0000000000000E+00
(PID.TID 0000.0001) %MON exf_uwind_max                =   0.0000000000000E+00
(PID.TID 0000.0001) %MON exf_uwind_min                =   0.0000000000000E+00
(PID.TID 0000.0001) %MON exf_uwind_mean               =   0.0000000000000E+00
(PID.TID 0000.0001) %MON exf_uwind_sd                 =   0.0000000000000E+00
(PID.TID 0000.0001) %MON exf_uwind_del2               =   0.0000000000000E+00
(PID.TID 0000.0001) %MON exf_vwind_max                =   0.0000000000000E+00
(PID.TID 0000.0001) %MON exf_vwind_min                =   0.0000000000000E+00
(PID.TID 0000.0001) %MON exf_vwind_mean               =   0.0000000000000E+00
(PID.TID 0000.0001) %MON exf_vwind_sd                 =   0.0000000000000E+00
(PID.TID 0000.0001) %MON exf_vwind_del2               =   0.0000000000000E+00
(PID.TID 0000.0001) %MON exf_wspeed_max               =   0.0000000000000E+00
(PID.TID 0000.0001) %MON exf_wspeed_min               =   0.0000000000000E+00
(PID.TID 0000.0001) %MON exf_wspeed_mean              =   0.0000000000000E+00
(PID.TID 0000.0001) %MON exf_wspeed_sd                =   0.0000000000000E+00
(PID.TID 0000.0001) %MON exf_wspeed_del2              =   0.0000000000000E+00
(PID.TID 0000.0001) %MON exf_evap_max                 =   0.0000000000000E+00
(PID.TID 0000.0001) %MON exf_evap_min                 =   0.0000000000000E+00
(PID.TID 0000.0001) %MON exf_evap_mean                =   0.0000000000000E+00
(PID.TID 0000.0001) %MON exf_evap_sd                  =   0.0000000000000E+00
(PID.TID 0000.0001) %MON exf_evap_del2                =   0.0000000000000E+00
(PID.TID 0000.0001) // =======================================================
(PID.TID 0000.0001) // End MONITOR EXF statistics
(PID.TID 0000.0001) // =======================================================
(PID.TID 0000.0001) // =======================================================
(PID.TID 0000.0001) // Begin MONITOR GUD statistics
(PID.TID 0000.0001) // =======================================================
(PID.TID 0000.0001) %MON gud_tsnumber                 =                     2
(PID.TID 0000.0001) %MON gud_time_sec                 =   7.2000000000000E+03
(PID.TID 0000.0001) %MON gud_OASIMEd01_max            =   5.1497173666954E+00
(PID.TID 0000.0001) %MON gud_OASIMEd01_min            =   5.1497173666954E+00
(PID.TID 0000.0001) %MON gud_OASIMEd01_mean           =   5.1497173666954E+00
(PID.TID 0000.0001) %MON gud_OASIMEd01_sd             =   0.0000000000000E+00
(PID.TID 0000.0001) %MON gud_OASIMEd01_del2           =   1.4565600284738E+01
(PID.TID 0000.0001) %MON gud_OASIMEd02_max            =   6.6271289136675E+00
(PID.TID 0000.0001) %MON gud_OASIMEd02_min            =   6.6271289136675E+00
(PID.TID 0000.0001) %MON gud_OASIMEd02_mean           =   6.6271289136675E+00
(PID.TID 0000.0001) %MON gud_OASIMEd02_sd             =   0.0000000000000E+00
(PID.TID 0000.0001) %MON gud_OASIMEd02_del2           =   1.8744351178607E+01
(PID.TID 0000.0001) %MON gud_OASIMEd03_max            =   8.0762863781717E+00
(PID.TID 0000.0001) %MON gud_OASIMEd03_min            =   8.0762863781717E+00
(PID.TID 0000.0001) %MON gud_OASIMEd03_mean           =   8.0762863781717E+00
(PID.TID 0000.0001) %MON gud_OASIMEd03_sd             =   0.0000000000000E+00
(PID.TID 0000.0001) %MON gud_OASIMEd03_del2           =   2.2843187459239E+01
(PID.TID 0000.0001) %MON gud_OASIMEd04_max            =   8.5107749316427E+00
(PID.TID 0000.0001) %MON gud_OASIMEd04_min            =   8.5107749316427E+00
(PID.TID 0000.0001) %MON gud_OASIMEd04_mean           =   8.5107749316427E+00
(PID.TID 0000.0001) %MON gud_OASIMEd04_sd             =   0.0000000000000E+00
(PID.TID 0000.0001) %MON gud_OASIMEd04_del2           =   2.4072106669268E+01
(PID.TID 0000.0001) %MON gud_OASIMEd05_max            =   8.5193572454982E+00
(PID.TID 0000.0001) %MON gud_OASIMEd05_min            =   8.5193572454982E+00
(PID.TID 0000.0001) %MON gud_OASIMEd05_mean           =   8.5193572454982E+00
(PID.TID 0000.0001) %MON gud_OASIMEd05_sd             =   0.0000000000000E+00
(PID.TID 0000.0001) %MON gud_OASIMEd05_del2           =   2.4096381118570E+01
(PID.TID 0000.0001) %MON gud_OASIMEd06_max            =   8.3551432185703E+00
(PID.TID 0000.0001) %MON gud_OASIMEd06_min            =   8.3551432185703E+00
(PID.TID 0000.0001) %MON gud_OASIMEd06_mean           =   8.3551432185703E+00
(PID.TID 0000.0001) %MON gud_OASIMEd06_sd             =   0.0000000000000E+00
(PID.TID 0000.0001) %MON gud_OASIMEd06_del2           =   2.3631913710543E+01
(PID.TID 0000.0001) %MON gud_OASIMEd07_max            =   8.4518083479669E+00
(PID.TID 0000.0001) %MON gud_OASIMEd07_min            =   8.4518083479669E+00
(PID.TID 0000.0001) %MON gud_OASIMEd07_mean           =   8.4518083479669E+00
(PID.TID 0000.0001) %MON gud_OASIMEd07_sd             =   0.0000000000000E+00
(PID.TID 0000.0001) %MON gud_OASIMEd07_del2           =   2.3905323984546E+01
(PID.TID 0000.0001) %MON gud_OASIMEd08_max            =   8.3214161356290E+00
(PID.TID 0000.0001) %MON gud_OASIMEd08_min            =   8.3214161356290E+00
(PID.TID 0000.0001) %MON gud_OASIMEd08_mean           =   8.3214161356290E+00
(PID.TID 0000.0001) %MON gud_OASIMEd08_sd             =   0.0000000000000E+00
(PID.TID 0000.0001) %MON gud_OASIMEd08_del2           =   2.3536519114314E+01
(PID.TID 0000.0001) %MON gud_OASIMEd09_max            =   7.8922420647409E+00
(PID.TID 0000.0001) %MON gud_OASIMEd09_min            =   7.8922420647409E+00
(PID.TID 0000.0001) %MON gud_OASIMEd09_mean           =   7.8922420647409E+00
(PID.TID 0000.0001) %MON gud_OASIMEd09_sd             =   8.8817841970013E-16
(PID.TID 0000.0001) %MON gud_OASIMEd09_del2           =   2.2322631530976E+01
(PID.TID 0000.0001) %MON gud_OASIMEd10_max            =   7.8283224357499E+00
(PID.TID 0000.0001) %MON gud_OASIMEd10_min            =   7.8283224357499E+00
(PID.TID 0000.0001) %MON gud_OASIMEd10_mean           =   7.8283224357499E+00
(PID.TID 0000.0001) %MON gud_OASIMEd10_sd             =   0.0000000000000E+00
(PID.TID 0000.0001) %MON gud_OASIMEd10_del2           =   2.2141839518534E+01
(PID.TID 0000.0001) %MON gud_OASIMEd11_max            =   7.3984347913000E+00
(PID.TID 0000.0001) %MON gud_OASIMEd11_min            =   7.3984347913000E+00
(PID.TID 0000.0001) %MON gud_OASIMEd11_mean           =   7.3984347913000E+00
(PID.TID 0000.0001) %MON gud_OASIMEd11_sd             =   8.8817841970013E-16
(PID.TID 0000.0001) %MON gud_OASIMEd11_del2           =   2.0925933644379E+01
(PID.TID 0000.0001) %MON gud_OASIMEd12_max            =   6.7462352249357E+00
(PID.TID 0000.0001) %MON gud_OASIMEd12_min            =   6.7462352249357E+00
(PID.TID 0000.0001) %MON gud_OASIMEd12_mean           =   6.7462352249357E+00
(PID.TID 0000.0001) %MON gud_OASIMEd12_sd             =   0.0000000000000E+00
(PID.TID 0000.0001) %MON gud_OASIMEd12_del2           =   1.9081234700126E+01
(PID.TID 0000.0001) %MON gud_OASIMEd13_max            =   3.3248014416960E+00
(PID.TID 0000.0001) %MON gud_OASIMEd13_min            =   3.3248014416960E+00
(PID.TID 0000.0001) %MON gud_OASIMEd13_mean           =   3.3248014416960E+00
(PID.TID 0000.0001) %MON gud_OASIMEd13_sd             =   0.0000000000000E+00
(PID.TID 0000.0001) %MON gud_OASIMEd13_del2           =   9.4039585820881E+00
(PID.TID 0000.0001) %MON gud_OASIMEs01_max            =   3.8714932408598E+00
(PID.TID 0000.0001) %MON gud_OASIMEs01_min            =   3.8714932408598E+00
(PID.TID 0000.0001) %MON gud_OASIMEs01_mean           =   3.8714932408598E+00
(PID.TID 0000.0001) %MON gud_OASIMEs01_sd             =   0.0000000000000E+00
(PID.TID 0000.0001) %MON gud_OASIMEs01_del2           =   1.0950236495719E+01
(PID.TID 0000.0001) %MON gud_OASIMEs02_max            =   4.4523268924819E+00
(PID.TID 0000.0001) %MON gud_OASIMEs02_min            =   4.4523268924819E+00
(PID.TID 0000.0001) %MON gud_OASIMEs02_mean           =   4.4523268924819E+00
(PID.TID 0000.0001) %MON gud_OASIMEs02_sd             =   0.0000000000000E+00
(PID.TID 0000.0001) %MON gud_OASIMEs02_del2           =   1.2593082150933E+01
(PID.TID 0000.0001) %MON gud_OASIMEs03_max            =   5.0461345036825E+00
(PID.TID 0000.0001) %MON gud_OASIMEs03_min            =   5.0461345036825E+00
(PID.TID 0000.0001) %MON gud_OASIMEs03_mean           =   5.0461345036825E+00
(PID.TID 0000.0001) %MON gud_OASIMEs03_sd             =   0.0000000000000E+00
(PID.TID 0000.0001) %MON gud_OASIMEs03_del2           =   1.4272623705333E+01
(PID.TID 0000.0001) %MON gud_OASIMEs04_max            =   4.9438894602987E+00
(PID.TID 0000.0001) %MON gud_OASIMEs04_min            =   4.9438894602987E+00
(PID.TID 0000.0001) %MON gud_OASIMEs04_mean           =   4.9438894602987E+00
(PID.TID 0000.0001) %MON gud_OASIMEs04_sd             =   0.0000000000000E+00
(PID.TID 0000.0001) %MON gud_OASIMEs04_del2           =   1.3983431051256E+01
(PID.TID 0000.0001) %MON gud_OASIMEs05_max            =   4.6609512991375E+00
(PID.TID 0000.0001) %MON gud_OASIMEs05_min            =   4.6609512991375E+00
(PID.TID 0000.0001) %MON gud_OASIMEs05_mean           =   4.6609512991375E+00
(PID.TID 0000.0001) %MON gud_OASIMEs05_sd             =   0.0000000000000E+00
(PID.TID 0000.0001) %MON gud_OASIMEs05_del2           =   1.3183161081602E+01
(PID.TID 0000.0001) %MON gud_OASIMEs06_max            =   4.3348442998197E+00
(PID.TID 0000.0001) %MON gud_OASIMEs06_min            =   4.3348442998197E+00
(PID.TID 0000.0001) %MON gud_OASIMEs06_mean           =   4.3348442998197E+00
(PID.TID 0000.0001) %MON gud_OASIMEs06_sd             =   0.0000000000000E+00
(PID.TID 0000.0001) %MON gud_OASIMEs06_del2           =   1.2260791199162E+01
(PID.TID 0000.0001) %MON gud_OASIMEs07_max            =   4.2105758004718E+00
(PID.TID 0000.0001) %MON gud_OASIMEs07_min            =   4.2105758004718E+00
(PID.TID 0000.0001) %MON gud_OASIMEs07_mean           =   4.2105758004718E+00
(PID.TID 0000.0001) %MON gud_OASIMEs07_sd             =   0.0000000000000E+00
(PID.TID 0000.0001) %MON gud_OASIMEs07_del2           =   1.1909306804854E+01
(PID.TID 0000.0001) %MON gud_OASIMEs08_max            =   4.0414000471433E+00
(PID.TID 0000.0001) %MON gud_OASIMEs08_min            =   4.0414000471433E+00
(PID.TID 0000.0001) %MON gud_OASIMEs08_mean           =   4.0414000471433E+00
(PID.TID 0000.0001) %MON gud_OASIMEs08_sd             =   0.0000000000000E+00
(PID.TID 0000.0001) %MON gud_OASIMEs08_del2           =   1.1430805515291E+01
(PID.TID 0000.0001) %MON gud_OASIMEs09_max            =   3.7303559044997E+00
(PID.TID 0000.0001) %MON gud_OASIMEs09_min            =   3.7303559044997E+00
(PID.TID 0000.0001) %MON gud_OASIMEs09_mean           =   3.7303559044997E+00
(PID.TID 0000.0001) %MON gud_OASIMEs09_sd             =   0.0000000000000E+00
(PID.TID 0000.0001) %MON gud_OASIMEs09_del2           =   1.0551039825244E+01
(PID.TID 0000.0001) %MON gud_OASIMEs10_max            =   3.6350070297718E+00
(PID.TID 0000.0001) %MON gud_OASIMEs10_min            =   3.6350070297718E+00
(PID.TID 0000.0001) %MON gud_OASIMEs10_mean           =   3.6350070297718E+00
(PID.TID 0000.0001) %MON gud_OASIMEs10_sd             =   4.4408920985006E-16
(PID.TID 0000.0001) %MON gud_OASIMEs10_del2           =   1.0281352481650E+01
(PID.TID 0000.0001) %MON gud_OASIMEs11_max            =   3.4207013838821E+00
(PID.TID 0000.0001) %MON gud_OASIMEs11_min            =   3.4207013838821E+00
(PID.TID 0000.0001) %MON gud_OASIMEs11_mean           =   3.4207013838821E+00
(PID.TID 0000.0001) %MON gud_OASIMEs11_sd             =   0.0000000000000E+00
(PID.TID 0000.0001) %MON gud_OASIMEs11_del2           =   9.6752045798290E+00
(PID.TID 0000.0001) %MON gud_OASIMEs12_max            =   3.0618293139670E+00
(PID.TID 0000.0001) %MON gud_OASIMEs12_min            =   3.0618293139670E+00
(PID.TID 0000.0001) %MON gud_OASIMEs12_mean           =   3.0618293139670E+00
(PID.TID 0000.0001) %MON gud_OASIMEs12_sd             =   0.0000000000000E+00
(PID.TID 0000.0001) %MON gud_OASIMEs12_del2           =   8.6601610829672E+00
(PID.TID 0000.0001) %MON gud_OASIMEs13_max            =   1.5064399298694E+00
(PID.TID 0000.0001) %MON gud_OASIMEs13_min            =   1.5064399298694E+00
(PID.TID 0000.0001) %MON gud_OASIMEs13_mean           =   1.5064399298694E+00
(PID.TID 0000.0001) %MON gud_OASIMEs13_sd             =   0.0000000000000E+00
(PID.TID 0000.0001) %MON gud_OASIMEs13_del2           =   4.2608555594435E+00
(PID.TID 0000.0001) %MON gud_surfPAR_max              =   0.0000000000000E+00
(PID.TID 0000.0001) %MON gud_surfPAR_min              =   0.0000000000000E+00
(PID.TID 0000.0001) %MON gud_surfPAR_mean             =   0.0000000000000E+00
(PID.TID 0000.0001) %MON gud_surfPAR_sd               =   0.0000000000000E+00
(PID.TID 0000.0001) %MON gud_surfPAR_del2             =   0.0000000000000E+00
(PID.TID 0000.0001) %MON gud_inputFe_max              =   9.9999999600420E-09
(PID.TID 0000.0001) %MON gud_inputFe_min              =   9.9999999600420E-09
(PID.TID 0000.0001) %MON gud_inputFe_mean             =   9.9999999600420E-09
(PID.TID 0000.0001) %MON gud_inputFe_sd               =   0.0000000000000E+00
(PID.TID 0000.0001) %MON gud_inputFe_del2             =   2.8284271134444E-08
(PID.TID 0000.0001) %MON gud_iceFrac_max              =   0.0000000000000E+00
(PID.TID 0000.0001) %MON gud_iceFrac_min              =   0.0000000000000E+00
(PID.TID 0000.0001) %MON gud_iceFrac_mean             =   0.0000000000000E+00
(PID.TID 0000.0001) %MON gud_iceFrac_sd               =   0.0000000000000E+00
(PID.TID 0000.0001) %MON gud_iceFrac_del2             =   0.0000000000000E+00
(PID.TID 0000.0001) %MON gud_windSpeed_max            =   0.0000000000000E+00
(PID.TID 0000.0001) %MON gud_windSpeed_min            =   0.0000000000000E+00
(PID.TID 0000.0001) %MON gud_windSpeed_mean           =   0.0000000000000E+00
(PID.TID 0000.0001) %MON gud_windSpeed_sd             =   0.0000000000000E+00
(PID.TID 0000.0001) %MON gud_windSpeed_del2           =   0.0000000000000E+00
(PID.TID 0000.0001) %MON gud_atmospCO2_max            =   0.0000000000000E+00
(PID.TID 0000.0001) %MON gud_atmospCO2_min            =   0.0000000000000E+00
(PID.TID 0000.0001) %MON gud_atmospCO2_mean           =   0.0000000000000E+00
(PID.TID 0000.0001) %MON gud_atmospCO2_sd             =   0.0000000000000E+00
(PID.TID 0000.0001) %MON gud_atmospCO2_del2           =   0.0000000000000E+00
(PID.TID 0000.0001) // =======================================================
(PID.TID 0000.0001) // End MONITOR GUD statistics
(PID.TID 0000.0001) // =======================================================
 Local pointing vectors
 no(2) =   0.27363063147685535      -0.12470066308196398       0.95371695074822704     
 ea(2) =   0.41469324265623930       0.90996127087654310        0.0000000000000000     
 up(2) =   0.86784548855935806      -0.39549997488200311      -0.30070579950427312     
(PID.TID 0000.0001) // =======================================================
(PID.TID 0000.0001) // Begin MONITOR dynamic field statistics
(PID.TID 0000.0001) // =======================================================
(PID.TID 0000.0001) %MON time_tsnumber                =                     3
(PID.TID 0000.0001) %MON time_secondsf                =   1.0800000000000E+04
(PID.TID 0000.0001) %MON dynstat_eta_max              =   0.0000000000000E+00
(PID.TID 0000.0001) %MON dynstat_eta_min              =   0.0000000000000E+00
(PID.TID 0000.0001) %MON dynstat_eta_mean             =   0.0000000000000E+00
(PID.TID 0000.0001) %MON dynstat_eta_sd               =   0.0000000000000E+00
(PID.TID 0000.0001) %MON dynstat_eta_del2             =   0.0000000000000E+00
(PID.TID 0000.0001) %MON dynstat_uvel_max             =   0.0000000000000E+00
(PID.TID 0000.0001) %MON dynstat_uvel_min             =   0.0000000000000E+00
(PID.TID 0000.0001) %MON dynstat_uvel_mean            =   0.0000000000000E+00
(PID.TID 0000.0001) %MON dynstat_uvel_sd              =   0.0000000000000E+00
(PID.TID 0000.0001) %MON dynstat_uvel_del2            =   0.0000000000000E+00
(PID.TID 0000.0001) %MON dynstat_vvel_max             =   0.0000000000000E+00
(PID.TID 0000.0001) %MON dynstat_vvel_min             =   0.0000000000000E+00
(PID.TID 0000.0001) %MON dynstat_vvel_mean            =   0.0000000000000E+00
(PID.TID 0000.0001) %MON dynstat_vvel_sd              =   0.0000000000000E+00
(PID.TID 0000.0001) %MON dynstat_vvel_del2            =   0.0000000000000E+00
(PID.TID 0000.0001) %MON dynstat_wvel_max             =   0.0000000000000E+00
(PID.TID 0000.0001) %MON dynstat_wvel_min             =   0.0000000000000E+00
(PID.TID 0000.0001) %MON dynstat_wvel_mean            =   0.0000000000000E+00
(PID.TID 0000.0001) %MON dynstat_wvel_sd              =   0.0000000000000E+00
(PID.TID 0000.0001) %MON dynstat_wvel_del2            =   0.0000000000000E+00
(PID.TID 0000.0001) %MON dynstat_theta_max            =   2.6316641728912E+01
(PID.TID 0000.0001) %MON dynstat_theta_min            =   2.6737007672781E+00
(PID.TID 0000.0001) %MON dynstat_theta_mean           =   5.4735157557642E+00
(PID.TID 0000.0001) %MON dynstat_theta_sd             =   5.1968480490481E+00
(PID.TID 0000.0001) %MON dynstat_theta_del2           =   0.0000000000000E+00
(PID.TID 0000.0001) %MON dynstat_salt_max             =   3.5000000000000E+01
(PID.TID 0000.0001) %MON dynstat_salt_min             =   3.5000000000000E+01
(PID.TID 0000.0001) %MON dynstat_salt_mean            =   3.5000000000000E+01
(PID.TID 0000.0001) %MON dynstat_salt_sd              =   7.1054273576010E-15
(PID.TID 0000.0001) %MON dynstat_salt_del2            =   0.0000000000000E+00
(PID.TID 0000.0001) %MON dynstat_sst_max              =   2.6316641728912E+01
(PID.TID 0000.0001) %MON dynstat_sst_min              =   2.6316641728912E+01
(PID.TID 0000.0001) %MON dynstat_sst_mean             =   2.6316641728912E+01
(PID.TID 0000.0001) %MON dynstat_sst_sd               =   0.0000000000000E+00
(PID.TID 0000.0001) %MON dynstat_sst_del2             =   0.0000000000000E+00
(PID.TID 0000.0001) %MON dynstat_sss_max              =   3.5000000000000E+01
(PID.TID 0000.0001) %MON dynstat_sss_min              =   3.5000000000000E+01
(PID.TID 0000.0001) %MON dynstat_sss_mean             =   3.5000000000000E+01
(PID.TID 0000.0001) %MON dynstat_sss_sd               =   0.0000000000000E+00
(PID.TID 0000.0001) %MON dynstat_sss_del2             =   0.0000000000000E+00
(PID.TID 0000.0001) %MON forcing_qnet_max             =   0.0000000000000E+00
(PID.TID 0000.0001) %MON forcing_qnet_min             =   0.0000000000000E+00
(PID.TID 0000.0001) %MON forcing_qnet_mean            =   0.0000000000000E+00
(PID.TID 0000.0001) %MON forcing_qnet_sd              =   0.0000000000000E+00
(PID.TID 0000.0001) %MON forcing_qnet_del2            =   0.0000000000000E+00
(PID.TID 0000.0001) %MON forcing_qsw_max              =   0.0000000000000E+00
(PID.TID 0000.0001) %MON forcing_qsw_min              =   0.0000000000000E+00
(PID.TID 0000.0001) %MON forcing_qsw_mean             =   0.0000000000000E+00
(PID.TID 0000.0001) %MON forcing_qsw_sd               =   0.0000000000000E+00
(PID.TID 0000.0001) %MON forcing_qsw_del2             =   0.0000000000000E+00
(PID.TID 0000.0001) %MON forcing_empmr_max            =   0.0000000000000E+00
(PID.TID 0000.0001) %MON forcing_empmr_min            =   0.0000000000000E+00
(PID.TID 0000.0001) %MON forcing_empmr_mean           =   0.0000000000000E+00
(PID.TID 0000.0001) %MON forcing_empmr_sd             =   0.0000000000000E+00
(PID.TID 0000.0001) %MON forcing_empmr_del2           =   0.0000000000000E+00
(PID.TID 0000.0001) %MON forcing_fu_max               =   0.0000000000000E+00
(PID.TID 0000.0001) %MON forcing_fu_min               =   0.0000000000000E+00
(PID.TID 0000.0001) %MON forcing_fu_mean              =   0.0000000000000E+00
(PID.TID 0000.0001) %MON forcing_fu_sd                =   0.0000000000000E+00
(PID.TID 0000.0001) %MON forcing_fu_del2              =   0.0000000000000E+00
(PID.TID 0000.0001) %MON forcing_fv_max               =   0.0000000000000E+00
(PID.TID 0000.0001) %MON forcing_fv_min               =   0.0000000000000E+00
(PID.TID 0000.0001) %MON forcing_fv_mean              =   0.0000000000000E+00
(PID.TID 0000.0001) %MON forcing_fv_sd                =   0.0000000000000E+00
(PID.TID 0000.0001) %MON forcing_fv_del2              =   0.0000000000000E+00
(PID.TID 0000.0001) %MON advcfl_uvel_max              =   0.0000000000000E+00
(PID.TID 0000.0001) %MON advcfl_vvel_max              =   0.0000000000000E+00
(PID.TID 0000.0001) %MON advcfl_wvel_max              =   0.0000000000000E+00
(PID.TID 0000.0001) %MON advcfl_W_hf_max              =   0.0000000000000E+00
(PID.TID 0000.0001) %MON pe_b_mean                    =   0.0000000000000E+00
(PID.TID 0000.0001) %MON ke_max                       =   0.0000000000000E+00
(PID.TID 0000.0001) %MON ke_mean                      =   0.0000000000000E+00
(PID.TID 0000.0001) %MON ke_vol                       =   4.1199767883485E+13
(PID.TID 0000.0001) %MON vort_r_min                   =   0.0000000000000E+00
(PID.TID 0000.0001) %MON vort_r_max                   =   0.0000000000000E+00
(PID.TID 0000.0001) %MON vort_a_mean                  =  -4.5067801836625E-05
(PID.TID 0000.0001) %MON vort_a_sd                    =  -4.1359030627651E-25
(PID.TID 0000.0001) %MON vort_p_mean                  =  -4.5067801836625E-05
(PID.TID 0000.0001) %MON vort_p_sd                    =   0.0000000000000E+00
(PID.TID 0000.0001) %MON surfExpan_theta_mean         =   0.0000000000000E+00
(PID.TID 0000.0001) %MON surfExpan_salt_mean          =   0.0000000000000E+00
(PID.TID 0000.0001) // =======================================================
(PID.TID 0000.0001) // End MONITOR dynamic field statistics
(PID.TID 0000.0001) // =======================================================
(PID.TID 0000.0001) // =======================================================
(PID.TID 0000.0001) // Begin MONITOR ptracer field statistics
(PID.TID 0000.0001) // =======================================================
(PID.TID 0000.0001) %MON trcstat_ptracer01_max        =   2.0000000003831E+03
(PID.TID 0000.0001) %MON trcstat_ptracer01_min        =   1.9999995703591E+03
(PID.TID 0000.0001) %MON trcstat_ptracer01_mean       =   1.9999999980799E+03
(PID.TID 0000.0001) %MON trcstat_ptracer01_sd         =   2.5369531992444E-05
(PID.TID 0000.0001) %MON trcstat_ptracer01_del2       =   0.0000000000000E+00
(PID.TID 0000.0001) %MON trcstat_ptracer02_max        =   1.9784522049203E-02
(PID.TID 0000.0001) %MON trcstat_ptracer02_min        =   1.4454214190673E-07
(PID.TID 0000.0001) %MON trcstat_ptracer02_mean       =   4.9294859415986E-04
(PID.TID 0000.0001) %MON trcstat_ptracer02_sd         =   2.6513510598398E-03
(PID.TID 0000.0001) %MON trcstat_ptracer02_del2       =   0.0000000000000E+00
(PID.TID 0000.0001) %MON trcstat_ptracer03_max        =   1.8746041904272E-02
(PID.TID 0000.0001) %MON trcstat_ptracer03_min        =   3.8743032276586E-06
(PID.TID 0000.0001) %MON trcstat_ptracer03_mean       =   7.1166046309366E-04
(PID.TID 0000.0001) %MON trcstat_ptracer03_sd         =   2.2629760917563E-03
(PID.TID 0000.0001) %MON trcstat_ptracer03_del2       =   0.0000000000000E+00
(PID.TID 0000.0001) %MON trcstat_ptracer04_max        =   3.3903494635233E+01
(PID.TID 0000.0001) %MON trcstat_ptracer04_min        =   4.6652472269659E-02
(PID.TID 0000.0001) %MON trcstat_ptracer04_mean       =   2.3502397502418E+01
(PID.TID 0000.0001) %MON trcstat_ptracer04_sd         =   7.8161792246797E+00
(PID.TID 0000.0001) %MON trcstat_ptracer04_del2       =   0.0000000000000E+00
(PID.TID 0000.0001) %MON trcstat_ptracer05_max        =   2.2436993751164E+00
(PID.TID 0000.0001) %MON trcstat_ptracer05_min        =   2.1025899690130E-01
(PID.TID 0000.0001) %MON trcstat_ptracer05_mean       =   1.5821339978184E+00
(PID.TID 0000.0001) %MON trcstat_ptracer05_sd         =   4.6734943306111E-01
(PID.TID 0000.0001) %MON trcstat_ptracer05_del2       =   0.0000000000000E+00
(PID.TID 0000.0001) %MON trcstat_ptracer06_max        =   3.9387400882396E+01
(PID.TID 0000.0001) %MON trcstat_ptracer06_min        =   1.2248146512220E+00
(PID.TID 0000.0001) %MON trcstat_ptracer06_mean       =   2.9621891037970E+01
(PID.TID 0000.0001) %MON trcstat_ptracer06_sd         =   1.1270582096959E+01
(PID.TID 0000.0001) %MON trcstat_ptracer06_del2       =   0.0000000000000E+00
(PID.TID 0000.0001) %MON trcstat_ptracer07_max        =   1.3003908067476E-03
(PID.TID 0000.0001) %MON trcstat_ptracer07_min        =   1.2999561727034E-03
(PID.TID 0000.0001) %MON trcstat_ptracer07_mean       =   1.2999576610755E-03
(PID.TID 0000.0001) %MON trcstat_ptracer07_sd         =   2.3227539895149E-08
(PID.TID 0000.0001) %MON trcstat_ptracer07_del2       =   0.0000000000000E+00
(PID.TID 0000.0001) %MON trcstat_ptracer08_max        =   5.9913087172280E-03
(PID.TID 0000.0001) %MON trcstat_ptracer08_min        =  -1.6201096552396E-06
(PID.TID 0000.0001) %MON trcstat_ptracer08_mean       =   5.4870220796864E-05
(PID.TID 0000.0001) %MON trcstat_ptracer08_sd         =   3.9724969735192E-04
(PID.TID 0000.0001) %MON trcstat_ptracer08_del2       =   0.0000000000000E+00
(PID.TID 0000.0001) %MON trcstat_ptracer09_max        =   8.2511970243694E-02
(PID.TID 0000.0001) %MON trcstat_ptracer09_min        =   4.5996512047773E-08
(PID.TID 0000.0001) %MON trcstat_ptracer09_mean       =   3.4419411328538E-03
(PID.TID 0000.0001) %MON trcstat_ptracer09_sd         =   1.4809658378170E-02
(PID.TID 0000.0001) %MON trcstat_ptracer09_del2       =   0.0000000000000E+00
(PID.TID 0000.0001) %MON trcstat_ptracer10_max        =   5.1569981402308E-03
(PID.TID 0000.0001) %MON trcstat_ptracer10_min        =   2.8747820029858E-09
(PID.TID 0000.0001) %MON trcstat_ptracer10_mean       =   2.1512132080336E-04
(PID.TID 0000.0001) %MON trcstat_ptracer10_sd         =   9.2560364863563E-04
(PID.TID 0000.0001) %MON trcstat_ptracer10_del2       =   0.0000000000000E+00
(PID.TID 0000.0001) %MON trcstat_ptracer11_max        =   5.1569981289507E-06
(PID.TID 0000.0001) %MON trcstat_ptracer11_min        =   2.8747816814646E-12
(PID.TID 0000.0001) %MON trcstat_ptracer11_mean       =   2.1512132111080E-07
(PID.TID 0000.0001) %MON trcstat_ptracer11_sd         =   9.2560364827168E-07
(PID.TID 0000.0001) %MON trcstat_ptracer11_del2       =   0.0000000000000E+00
(PID.TID 0000.0001) %MON trcstat_ptracer12_max        =   3.0904950170120E-04
(PID.TID 0000.0001) %MON trcstat_ptracer12_min        =   1.2456839356038E-29
(PID.TID 0000.0001) %MON trcstat_ptracer12_mean       =   9.2221935273179E-06
(PID.TID 0000.0001) %MON trcstat_ptracer12_sd         =   4.8227775919014E-05
(PID.TID 0000.0001) %MON trcstat_ptracer12_del2       =   0.0000000000000E+00
(PID.TID 0000.0001) %MON trcstat_ptracer13_max        =   4.3481775392785E-03
(PID.TID 0000.0001) %MON trcstat_ptracer13_min        =   1.8813920027646E-05
(PID.TID 0000.0001) %MON trcstat_ptracer13_mean       =   1.2609843261926E-03
(PID.TID 0000.0001) %MON trcstat_ptracer13_sd         =   1.5428305295304E-03
(PID.TID 0000.0001) %MON trcstat_ptracer13_del2       =   0.0000000000000E+00
(PID.TID 0000.0001) %MON trcstat_ptracer14_max        =   2.7176109620491E-04
(PID.TID 0000.0001) %MON trcstat_ptracer14_min        =   1.1758700017279E-06
(PID.TID 0000.0001) %MON trcstat_ptracer14_mean       =   7.8811520387036E-05
(PID.TID 0000.0001) %MON trcstat_ptracer14_sd         =   9.6426908095648E-05
(PID.TID 0000.0001) %MON trcstat_ptracer14_del2       =   0.0000000000000E+00
(PID.TID 0000.0001) %MON trcstat_ptracer15_max        =   1.6242578554936E-02
(PID.TID 0000.0001) %MON trcstat_ptracer15_min        =   1.1396871723566E-03
(PID.TID 0000.0001) %MON trcstat_ptracer15_mean       =   5.4880094087990E-03
(PID.TID 0000.0001) %MON trcstat_ptracer15_sd         =   5.1683221041024E-03
(PID.TID 0000.0001) %MON trcstat_ptracer15_del2       =   0.0000000000000E+00
(PID.TID 0000.0001) %MON trcstat_ptracer16_max        =   2.7176111210358E-07
(PID.TID 0000.0001) %MON trcstat_ptracer16_min        =   1.1758698733136E-09
(PID.TID 0000.0001) %MON trcstat_ptracer16_mean       =   7.8811520912341E-08
(PID.TID 0000.0001) %MON trcstat_ptracer16_sd         =   9.6426910150866E-08
(PID.TID 0000.0001) %MON trcstat_ptracer16_del2       =   0.0000000000000E+00
(PID.TID 0000.0001) %MON trcstat_ptracer17_max        =   0.0000000000000E+00
(PID.TID 0000.0001) %MON trcstat_ptracer17_min        =   0.0000000000000E+00
(PID.TID 0000.0001) %MON trcstat_ptracer17_mean       =   0.0000000000000E+00
(PID.TID 0000.0001) %MON trcstat_ptracer17_sd         =   0.0000000000000E+00
(PID.TID 0000.0001) %MON trcstat_ptracer17_del2       =   0.0000000000000E+00
(PID.TID 0000.0001) %MON trcstat_ptracer18_max        =   5.1077797854330E-03
(PID.TID 0000.0001) %MON trcstat_ptracer18_min        =   5.8680989357748E-11
(PID.TID 0000.0001) %MON trcstat_ptracer18_mean       =   2.1441374128954E-04
(PID.TID 0000.0001) %MON trcstat_ptracer18_sd         =   9.2282822677118E-04
(PID.TID 0000.0001) %MON trcstat_ptracer18_del2       =   0.0000000000000E+00
(PID.TID 0000.0001) %MON trcstat_ptracer19_max        =   8.7049046216056E-04
(PID.TID 0000.0001) %MON trcstat_ptracer19_min        =   2.0364050910673E-29
(PID.TID 0000.0001) %MON trcstat_ptracer19_mean       =   2.5957705678907E-05
(PID.TID 0000.0001) %MON trcstat_ptracer19_sd         =   1.3603751220379E-04
(PID.TID 0000.0001) %MON trcstat_ptracer19_del2       =   0.0000000000000E+00
(PID.TID 0000.0001) %MON trcstat_ptracer20_max        =   8.7054558882347E-04
(PID.TID 0000.0001) %MON trcstat_ptracer20_min        =   5.8982942073970E-36
(PID.TID 0000.0001) %MON trcstat_ptracer20_mean       =   2.6017048826978E-05
(PID.TID 0000.0001) %MON trcstat_ptracer20_sd         =   1.3644628624592E-04
(PID.TID 0000.0001) %MON trcstat_ptracer20_del2       =   0.0000000000000E+00
(PID.TID 0000.0001) %MON trcstat_ptracer21_max        =   8.7049046216056E-04
(PID.TID 0000.0001) %MON trcstat_ptracer21_min        =   2.0364050910673E-29
(PID.TID 0000.0001) %MON trcstat_ptracer21_mean       =   2.5957705678908E-05
(PID.TID 0000.0001) %MON trcstat_ptracer21_sd         =   1.3603751220380E-04
(PID.TID 0000.0001) %MON trcstat_ptracer21_del2       =   0.0000000000000E+00
(PID.TID 0000.0001) %MON trcstat_ptracer22_max        =   8.7049107854483E-04
(PID.TID 0000.0001) %MON trcstat_ptracer22_min        =   2.0364050910673E-29
(PID.TID 0000.0001) %MON trcstat_ptracer22_mean       =   2.6042068181953E-05
(PID.TID 0000.0001) %MON trcstat_ptracer22_sd         =   1.3654431710508E-04
(PID.TID 0000.0001) %MON trcstat_ptracer22_del2       =   0.0000000000000E+00
(PID.TID 0000.0001) %MON trcstat_ptracer23_max        =   8.7054572681259E-04
(PID.TID 0000.0001) %MON trcstat_ptracer23_min        =   5.8982942073970E-36
(PID.TID 0000.0001) %MON trcstat_ptracer23_mean       =   2.6072919050195E-05
(PID.TID 0000.0001) %MON trcstat_ptracer23_sd         =   1.3678546787337E-04
(PID.TID 0000.0001) %MON trcstat_ptracer23_del2       =   0.0000000000000E+00
(PID.TID 0000.0001) %MON trcstat_ptracer24_max        =   8.7054553376050E-04
(PID.TID 0000.0001) %MON trcstat_ptracer24_min        =   5.8982942073970E-36
(PID.TID 0000.0001) %MON trcstat_ptracer24_mean       =   2.5957705673251E-05
(PID.TID 0000.0001) %MON trcstat_ptracer24_sd         =   1.3608945110152E-04
(PID.TID 0000.0001) %MON trcstat_ptracer24_del2       =   0.0000000000000E+00
(PID.TID 0000.0001) %MON trcstat_ptracer25_max        =   8.7054554616962E-04
(PID.TID 0000.0001) %MON trcstat_ptracer25_min        =   5.8982942073970E-36
(PID.TID 0000.0001) %MON trcstat_ptracer25_mean       =   2.5988736828775E-05
(PID.TID 0000.0001) %MON trcstat_ptracer25_sd         =   1.3627535033280E-04
(PID.TID 0000.0001) %MON trcstat_ptracer25_del2       =   0.0000000000000E+00
(PID.TID 0000.0001) %MON trcstat_ptracer26_max        =   8.7054553376050E-04
(PID.TID 0000.0001) %MON trcstat_ptracer26_min        =   5.8982942073970E-36
(PID.TID 0000.0001) %MON trcstat_ptracer26_mean       =   2.5957705673247E-05
(PID.TID 0000.0001) %MON trcstat_ptracer26_sd         =   1.3608945110150E-04
(PID.TID 0000.0001) %MON trcstat_ptracer26_del2       =   0.0000000000000E+00
(PID.TID 0000.0001) %MON trcstat_ptracer27_max        =   8.7054563602808E-04
(PID.TID 0000.0001) %MON trcstat_ptracer27_min        =   5.8982942073970E-36
(PID.TID 0000.0001) %MON trcstat_ptracer27_mean       =   2.5960876364149E-05
(PID.TID 0000.0001) %MON trcstat_ptracer27_sd         =   1.3610875365486E-04
(PID.TID 0000.0001) %MON trcstat_ptracer27_del2       =   0.0000000000000E+00
(PID.TID 0000.0001) %MON trcstat_ptracer28_max        =   8.7054569048777E-04
(PID.TID 0000.0001) %MON trcstat_ptracer28_min        =   5.8982942073970E-36
(PID.TID 0000.0001) %MON trcstat_ptracer28_mean       =   2.6082815320967E-05
(PID.TID 0000.0001) %MON trcstat_ptracer28_sd         =   1.3684574199718E-04
(PID.TID 0000.0001) %MON trcstat_ptracer28_del2       =   0.0000000000000E+00
(PID.TID 0000.0001) %MON trcstat_ptracer29_max        =   8.7054553376050E-04
(PID.TID 0000.0001) %MON trcstat_ptracer29_min        =   5.8982942073970E-36
(PID.TID 0000.0001) %MON trcstat_ptracer29_mean       =   2.5957705673255E-05
(PID.TID 0000.0001) %MON trcstat_ptracer29_sd         =   1.3608945110155E-04
(PID.TID 0000.0001) %MON trcstat_ptracer29_del2       =   0.0000000000000E+00
(PID.TID 0000.0001) %MON trcstat_ptracer30_max        =   8.7054553376050E-04
(PID.TID 0000.0001) %MON trcstat_ptracer30_min        =   5.8982942073970E-36
(PID.TID 0000.0001) %MON trcstat_ptracer30_mean       =   2.5957705673247E-05
(PID.TID 0000.0001) %MON trcstat_ptracer30_sd         =   1.3608945110150E-04
(PID.TID 0000.0001) %MON trcstat_ptracer30_del2       =   0.0000000000000E+00
(PID.TID 0000.0001) %MON trcstat_ptracer31_max        =   8.7049046195834E-04
(PID.TID 0000.0001) %MON trcstat_ptracer31_min        =   2.0364050910673E-29
(PID.TID 0000.0001) %MON trcstat_ptracer31_mean       =   2.5957705673255E-05
(PID.TID 0000.0001) %MON trcstat_ptracer31_sd         =   1.3603751217336E-04
(PID.TID 0000.0001) %MON trcstat_ptracer31_del2       =   0.0000000000000E+00
(PID.TID 0000.0001) %MON trcstat_ptracer32_max        =   8.7054553376050E-04
(PID.TID 0000.0001) %MON trcstat_ptracer32_min        =   5.8982942073970E-36
(PID.TID 0000.0001) %MON trcstat_ptracer32_mean       =   2.5957705673248E-05
(PID.TID 0000.0001) %MON trcstat_ptracer32_sd         =   1.3608945110151E-04
(PID.TID 0000.0001) %MON trcstat_ptracer32_del2       =   0.0000000000000E+00
(PID.TID 0000.0001) %MON trcstat_ptracer33_max        =   8.7054556384365E-04
(PID.TID 0000.0001) %MON trcstat_ptracer33_min        =   5.8982942073970E-36
(PID.TID 0000.0001) %MON trcstat_ptracer33_mean       =   2.6048020101553E-05
(PID.TID 0000.0001) %MON trcstat_ptracer33_sd         =   1.3663430516777E-04
(PID.TID 0000.0001) %MON trcstat_ptracer33_del2       =   0.0000000000000E+00
(PID.TID 0000.0001) %MON trcstat_ptracer34_max        =   8.7049046216056E-04
(PID.TID 0000.0001) %MON trcstat_ptracer34_min        =   2.0364050910673E-29
(PID.TID 0000.0001) %MON trcstat_ptracer34_mean       =   2.5957705678909E-05
(PID.TID 0000.0001) %MON trcstat_ptracer34_sd         =   1.3603751220380E-04
(PID.TID 0000.0001) %MON trcstat_ptracer34_del2       =   0.0000000000000E+00
(PID.TID 0000.0001) %MON trcstat_ptracer35_max        =   8.7049046216056E-04
(PID.TID 0000.0001) %MON trcstat_ptracer35_min        =   2.0364050910673E-29
(PID.TID 0000.0001) %MON trcstat_ptracer35_mean       =   2.5957705678909E-05
(PID.TID 0000.0001) %MON trcstat_ptracer35_sd         =   1.3603751220380E-04
(PID.TID 0000.0001) %MON trcstat_ptracer35_del2       =   0.0000000000000E+00
(PID.TID 0000.0001) %MON trcstat_ptracer36_max        =   8.7054553376050E-04
(PID.TID 0000.0001) %MON trcstat_ptracer36_min        =   5.8982942073970E-36
(PID.TID 0000.0001) %MON trcstat_ptracer36_mean       =   2.5957705673256E-05
(PID.TID 0000.0001) %MON trcstat_ptracer36_sd         =   1.3608945110155E-04
(PID.TID 0000.0001) %MON trcstat_ptracer36_del2       =   0.0000000000000E+00
(PID.TID 0000.0001) %MON trcstat_ptracer37_max        =   8.7049096238068E-04
(PID.TID 0000.0001) %MON trcstat_ptracer37_min        =   2.0364050910673E-29
(PID.TID 0000.0001) %MON trcstat_ptracer37_mean       =   2.5997426781834E-05
(PID.TID 0000.0001) %MON trcstat_ptracer37_sd         =   1.3627571425895E-04
(PID.TID 0000.0001) %MON trcstat_ptracer37_del2       =   0.0000000000000E+00
(PID.TID 0000.0001) %MON trcstat_ptracer38_max        =   8.7049046195834E-04
(PID.TID 0000.0001) %MON trcstat_ptracer38_min        =   2.0364050910673E-29
(PID.TID 0000.0001) %MON trcstat_ptracer38_mean       =   2.5957705673256E-05
(PID.TID 0000.0001) %MON trcstat_ptracer38_sd         =   1.3603751217337E-04
(PID.TID 0000.0001) %MON trcstat_ptracer38_del2       =   0.0000000000000E+00
(PID.TID 0000.0001) %MON trcstat_ptracer39_max        =   8.7049098847426E-04
(PID.TID 0000.0001) %MON trcstat_ptracer39_min        =   2.0364050910673E-29
(PID.TID 0000.0001) %MON trcstat_ptracer39_mean       =   2.5963130466541E-05
(PID.TID 0000.0001) %MON trcstat_ptracer39_sd         =   1.3607037123533E-04
(PID.TID 0000.0001) %MON trcstat_ptracer39_del2       =   0.0000000000000E+00
(PID.TID 0000.0001) %MON trcstat_ptracer40_max        =   8.7049097943644E-04
(PID.TID 0000.0001) %MON trcstat_ptracer40_min        =   2.0364050910673E-29
(PID.TID 0000.0001) %MON trcstat_ptracer40_mean       =   2.6068320730807E-05
(PID.TID 0000.0001) %MON trcstat_ptracer40_sd         =   1.3670300989054E-04
(PID.TID 0000.0001) %MON trcstat_ptracer40_del2       =   0.0000000000000E+00
(PID.TID 0000.0001) %MON trcstat_ptracer41_max        =   8.7054553376050E-04
(PID.TID 0000.0001) %MON trcstat_ptracer41_min        =   5.8982942073970E-36
(PID.TID 0000.0001) %MON trcstat_ptracer41_mean       =   2.5957705673250E-05
(PID.TID 0000.0001) %MON trcstat_ptracer41_sd         =   1.3608945110152E-04
(PID.TID 0000.0001) %MON trcstat_ptracer41_del2       =   0.0000000000000E+00
(PID.TID 0000.0001) %MON trcstat_ptracer42_max        =   8.7049046195834E-04
(PID.TID 0000.0001) %MON trcstat_ptracer42_min        =   2.0364050910673E-29
(PID.TID 0000.0001) %MON trcstat_ptracer42_mean       =   2.5957705673253E-05
(PID.TID 0000.0001) %MON trcstat_ptracer42_sd         =   1.3603751217335E-04
(PID.TID 0000.0001) %MON trcstat_ptracer42_del2       =   0.0000000000000E+00
(PID.TID 0000.0001) %MON trcstat_ptracer43_max        =   8.7054553376050E-04
(PID.TID 0000.0001) %MON trcstat_ptracer43_min        =   5.8982942073970E-36
(PID.TID 0000.0001) %MON trcstat_ptracer43_mean       =   2.5957705673248E-05
(PID.TID 0000.0001) %MON trcstat_ptracer43_sd         =   1.3608945110150E-04
(PID.TID 0000.0001) %MON trcstat_ptracer43_del2       =   0.0000000000000E+00
(PID.TID 0000.0001) %MON trcstat_ptracer44_max        =   8.7054553376050E-04
(PID.TID 0000.0001) %MON trcstat_ptracer44_min        =   5.8982942073970E-36
(PID.TID 0000.0001) %MON trcstat_ptracer44_mean       =   2.5957705673247E-05
(PID.TID 0000.0001) %MON trcstat_ptracer44_sd         =   1.3608945110150E-04
(PID.TID 0000.0001) %MON trcstat_ptracer44_del2       =   0.0000000000000E+00
(PID.TID 0000.0001) %MON trcstat_ptracer45_max        =   8.7054553376050E-04
(PID.TID 0000.0001) %MON trcstat_ptracer45_min        =   5.8982942073970E-36
(PID.TID 0000.0001) %MON trcstat_ptracer45_mean       =   2.5957705673248E-05
(PID.TID 0000.0001) %MON trcstat_ptracer45_sd         =   1.3608945110151E-04
(PID.TID 0000.0001) %MON trcstat_ptracer45_del2       =   0.0000000000000E+00
(PID.TID 0000.0001) %MON trcstat_ptracer46_max        =   8.7054553376050E-04
(PID.TID 0000.0001) %MON trcstat_ptracer46_min        =   5.8982942073970E-36
(PID.TID 0000.0001) %MON trcstat_ptracer46_mean       =   2.5957705673248E-05
(PID.TID 0000.0001) %MON trcstat_ptracer46_sd         =   1.3608945110151E-04
(PID.TID 0000.0001) %MON trcstat_ptracer46_del2       =   0.0000000000000E+00
(PID.TID 0000.0001) %MON trcstat_ptracer47_max        =   8.7049101124009E-04
(PID.TID 0000.0001) %MON trcstat_ptracer47_min        =   2.0364050910673E-29
(PID.TID 0000.0001) %MON trcstat_ptracer47_mean       =   2.6067974984871E-05
(PID.TID 0000.0001) %MON trcstat_ptracer47_sd         =   1.3670092617672E-04
(PID.TID 0000.0001) %MON trcstat_ptracer47_del2       =   0.0000000000000E+00
(PID.TID 0000.0001) %MON trcstat_ptracer48_max        =   8.7054553376050E-04
(PID.TID 0000.0001) %MON trcstat_ptracer48_min        =   5.8982942073970E-36
(PID.TID 0000.0001) %MON trcstat_ptracer48_mean       =   2.5957705673258E-05
(PID.TID 0000.0001) %MON trcstat_ptracer48_sd         =   1.3608945110156E-04
(PID.TID 0000.0001) %MON trcstat_ptracer48_del2       =   0.0000000000000E+00
(PID.TID 0000.0001) %MON trcstat_ptracer49_max        =   8.7049097077684E-04
(PID.TID 0000.0001) %MON trcstat_ptracer49_min        =   2.0364050910673E-29
(PID.TID 0000.0001) %MON trcstat_ptracer49_mean       =   2.6070671473351E-05
(PID.TID 0000.0001) %MON trcstat_ptracer49_sd         =   1.3671728622327E-04
(PID.TID 0000.0001) %MON trcstat_ptracer49_del2       =   0.0000000000000E+00
(PID.TID 0000.0001) %MON trcstat_ptracer50_max        =   8.7054556280258E-04
(PID.TID 0000.0001) %MON trcstat_ptracer50_min        =   5.8982942073970E-36
(PID.TID 0000.0001) %MON trcstat_ptracer50_mean       =   2.6038175252660E-05
(PID.TID 0000.0001) %MON trcstat_ptracer50_sd         =   1.3657430109126E-04
(PID.TID 0000.0001) %MON trcstat_ptracer50_del2       =   0.0000000000000E+00
(PID.TID 0000.0001) %MON trcstat_ptracer51_max        =   8.7049094087265E-04
(PID.TID 0000.0001) %MON trcstat_ptracer51_min        =   2.0364050910673E-29
(PID.TID 0000.0001) %MON trcstat_ptracer51_mean       =   2.6006398382086E-05
(PID.TID 0000.0001) %MON trcstat_ptracer51_sd         =   1.3632950621072E-04
(PID.TID 0000.0001) %MON trcstat_ptracer51_del2       =   0.0000000000000E+00
(PID.TID 0000.0001) %MON trcstat_ptracer52_max        =   8.7054568655837E-04
(PID.TID 0000.0001) %MON trcstat_ptracer52_min        =   5.8982942073970E-36
(PID.TID 0000.0001) %MON trcstat_ptracer52_mean       =   2.6063307208801E-05
(PID.TID 0000.0001) %MON trcstat_ptracer52_sd         =   1.3672693246619E-04
(PID.TID 0000.0001) %MON trcstat_ptracer52_del2       =   0.0000000000000E+00
(PID.TID 0000.0001) %MON trcstat_ptracer53_max        =   8.7054553376050E-04
(PID.TID 0000.0001) %MON trcstat_ptracer53_min        =   5.8982942073970E-36
(PID.TID 0000.0001) %MON trcstat_ptracer53_mean       =   2.5957705673253E-05
(PID.TID 0000.0001) %MON trcstat_ptracer53_sd         =   1.3608945110153E-04
(PID.TID 0000.0001) %MON trcstat_ptracer53_del2       =   0.0000000000000E+00
(PID.TID 0000.0001) %MON trcstat_ptracer54_max        =   8.7049046216056E-04
(PID.TID 0000.0001) %MON trcstat_ptracer54_min        =   2.0364050910673E-29
(PID.TID 0000.0001) %MON trcstat_ptracer54_mean       =   2.5957705678905E-05
(PID.TID 0000.0001) %MON trcstat_ptracer54_sd         =   1.3603751220378E-04
(PID.TID 0000.0001) %MON trcstat_ptracer54_del2       =   0.0000000000000E+00
(PID.TID 0000.0001) %MON trcstat_ptracer55_max        =   8.7054553376050E-04
(PID.TID 0000.0001) %MON trcstat_ptracer55_min        =   5.8982942073970E-36
(PID.TID 0000.0001) %MON trcstat_ptracer55_mean       =   2.5957705673252E-05
(PID.TID 0000.0001) %MON trcstat_ptracer55_sd         =   1.3608945110153E-04
(PID.TID 0000.0001) %MON trcstat_ptracer55_del2       =   0.0000000000000E+00
(PID.TID 0000.0001) %MON trcstat_ptracer56_max        =   8.7054553376050E-04
(PID.TID 0000.0001) %MON trcstat_ptracer56_min        =   5.8982942073970E-36
(PID.TID 0000.0001) %MON trcstat_ptracer56_mean       =   2.5957705673258E-05
(PID.TID 0000.0001) %MON trcstat_ptracer56_sd         =   1.3608945110157E-04
(PID.TID 0000.0001) %MON trcstat_ptracer56_del2       =   0.0000000000000E+00
(PID.TID 0000.0001) %MON trcstat_ptracer57_max        =   8.7054553376050E-04
(PID.TID 0000.0001) %MON trcstat_ptracer57_min        =   5.8982942073970E-36
(PID.TID 0000.0001) %MON trcstat_ptracer57_mean       =   2.5957705673254E-05
(PID.TID 0000.0001) %MON trcstat_ptracer57_sd         =   1.3608945110154E-04
(PID.TID 0000.0001) %MON trcstat_ptracer57_del2       =   0.0000000000000E+00
(PID.TID 0000.0001) %MON trcstat_ptracer58_max        =   8.7049046216056E-04
(PID.TID 0000.0001) %MON trcstat_ptracer58_min        =   2.0364050910673E-29
(PID.TID 0000.0001) %MON trcstat_ptracer58_mean       =   2.5957705678909E-05
(PID.TID 0000.0001) %MON trcstat_ptracer58_sd         =   1.3603751220380E-04
(PID.TID 0000.0001) %MON trcstat_ptracer58_del2       =   0.0000000000000E+00
(PID.TID 0000.0001) %MON trcstat_ptracer59_max        =   8.7054553376050E-04
(PID.TID 0000.0001) %MON trcstat_ptracer59_min        =   5.8982942073970E-36
(PID.TID 0000.0001) %MON trcstat_ptracer59_mean       =   2.5957705673251E-05
(PID.TID 0000.0001) %MON trcstat_ptracer59_sd         =   1.3608945110152E-04
(PID.TID 0000.0001) %MON trcstat_ptracer59_del2       =   0.0000000000000E+00
(PID.TID 0000.0001) %MON trcstat_ptracer60_max        =   8.7049046195834E-04
(PID.TID 0000.0001) %MON trcstat_ptracer60_min        =   2.0364050910673E-29
(PID.TID 0000.0001) %MON trcstat_ptracer60_mean       =   2.5957705673256E-05
(PID.TID 0000.0001) %MON trcstat_ptracer60_sd         =   1.3603751217337E-04
(PID.TID 0000.0001) %MON trcstat_ptracer60_del2       =   0.0000000000000E+00
(PID.TID 0000.0001) %MON trcstat_ptracer61_max        =   8.7054553376050E-04
(PID.TID 0000.0001) %MON trcstat_ptracer61_min        =   5.8982942073970E-36
(PID.TID 0000.0001) %MON trcstat_ptracer61_mean       =   2.5957705673258E-05
(PID.TID 0000.0001) %MON trcstat_ptracer61_sd         =   1.3608945110156E-04
(PID.TID 0000.0001) %MON trcstat_ptracer61_del2       =   0.0000000000000E+00
(PID.TID 0000.0001) %MON trcstat_ptracer62_max        =   8.7049046195834E-04
(PID.TID 0000.0001) %MON trcstat_ptracer62_min        =   2.0364050910673E-29
(PID.TID 0000.0001) %MON trcstat_ptracer62_mean       =   2.5957705673254E-05
(PID.TID 0000.0001) %MON trcstat_ptracer62_sd         =   1.3603751217335E-04
(PID.TID 0000.0001) %MON trcstat_ptracer62_del2       =   0.0000000000000E+00
(PID.TID 0000.0001) %MON trcstat_ptracer63_max        =   8.7054555425716E-04
(PID.TID 0000.0001) %MON trcstat_ptracer63_min        =   5.8982942073970E-36
(PID.TID 0000.0001) %MON trcstat_ptracer63_mean       =   2.6004314630021E-05
(PID.TID 0000.0001) %MON trcstat_ptracer63_sd         =   1.3636919723145E-04
(PID.TID 0000.0001) %MON trcstat_ptracer63_del2       =   0.0000000000000E+00
(PID.TID 0000.0001) %MON trcstat_ptracer64_max        =   8.7049087776796E-04
(PID.TID 0000.0001) %MON trcstat_ptracer64_min        =   2.0364050910673E-29
(PID.TID 0000.0001) %MON trcstat_ptracer64_mean       =   2.6064602136130E-05
(PID.TID 0000.0001) %MON trcstat_ptracer64_sd         =   1.3668039694786E-04
(PID.TID 0000.0001) %MON trcstat_ptracer64_del2       =   0.0000000000000E+00
(PID.TID 0000.0001) %MON trcstat_ptracer65_max        =   8.7049046195834E-04
(PID.TID 0000.0001) %MON trcstat_ptracer65_min        =   2.0364050910673E-29
(PID.TID 0000.0001) %MON trcstat_ptracer65_mean       =   2.5957705673257E-05
(PID.TID 0000.0001) %MON trcstat_ptracer65_sd         =   1.3603751217338E-04
(PID.TID 0000.0001) %MON trcstat_ptracer65_del2       =   0.0000000000000E+00
(PID.TID 0000.0001) %MON trcstat_ptracer66_max        =   8.7049046195834E-04
(PID.TID 0000.0001) %MON trcstat_ptracer66_min        =   2.0364050910673E-29
(PID.TID 0000.0001) %MON trcstat_ptracer66_mean       =   2.5957705673256E-05
(PID.TID 0000.0001) %MON trcstat_ptracer66_sd         =   1.3603751217337E-04
(PID.TID 0000.0001) %MON trcstat_ptracer66_del2       =   0.0000000000000E+00
(PID.TID 0000.0001) %MON trcstat_ptracer67_max        =   8.7049046195834E-04
(PID.TID 0000.0001) %MON trcstat_ptracer67_min        =   2.0364050910673E-29
(PID.TID 0000.0001) %MON trcstat_ptracer67_mean       =   2.5957705673255E-05
(PID.TID 0000.0001) %MON trcstat_ptracer67_sd         =   1.3603751217337E-04
(PID.TID 0000.0001) %MON trcstat_ptracer67_del2       =   0.0000000000000E+00
(PID.TID 0000.0001) %MON trcstat_ptracer68_max        =   8.7054557833776E-04
(PID.TID 0000.0001) %MON trcstat_ptracer68_min        =   5.8982942073970E-36
(PID.TID 0000.0001) %MON trcstat_ptracer68_mean       =   2.6007053468163E-05
(PID.TID 0000.0001) %MON trcstat_ptracer68_sd         =   1.3638602729514E-04
(PID.TID 0000.0001) %MON trcstat_ptracer68_del2       =   0.0000000000000E+00
(PID.TID 0000.0001) %MON trcstat_ptracer69_max        =   8.7054553376050E-04
(PID.TID 0000.0001) %MON trcstat_ptracer69_min        =   5.8982942073970E-36
(PID.TID 0000.0001) %MON trcstat_ptracer69_mean       =   2.5957705673259E-05
(PID.TID 0000.0001) %MON trcstat_ptracer69_sd         =   1.3608945110157E-04
(PID.TID 0000.0001) %MON trcstat_ptracer69_del2       =   0.0000000000000E+00
(PID.TID 0000.0001) %MON trcstat_ptracer70_max        =   8.7049046216056E-04
(PID.TID 0000.0001) %MON trcstat_ptracer70_min        =   2.0364050910673E-29
(PID.TID 0000.0001) %MON trcstat_ptracer70_mean       =   2.5957705678909E-05
(PID.TID 0000.0001) %MON trcstat_ptracer70_sd         =   1.3603751220380E-04
(PID.TID 0000.0001) %MON trcstat_ptracer70_del2       =   0.0000000000000E+00
(PID.TID 0000.0001) %MON trcstat_ptracer71_max        =   8.7049046216056E-04
(PID.TID 0000.0001) %MON trcstat_ptracer71_min        =   2.0364050910673E-29
(PID.TID 0000.0001) %MON trcstat_ptracer71_mean       =   2.5957705678907E-05
(PID.TID 0000.0001) %MON trcstat_ptracer71_sd         =   1.3603751220379E-04
(PID.TID 0000.0001) %MON trcstat_ptracer71_del2       =   0.0000000000000E+00
(PID.TID 0000.0001) %MON trcstat_ptracer72_max        =   8.7049046195834E-04
(PID.TID 0000.0001) %MON trcstat_ptracer72_min        =   2.0364050910673E-29
(PID.TID 0000.0001) %MON trcstat_ptracer72_mean       =   2.5957705673254E-05
(PID.TID 0000.0001) %MON trcstat_ptracer72_sd         =   1.3603751217335E-04
(PID.TID 0000.0001) %MON trcstat_ptracer72_del2       =   0.0000000000000E+00
(PID.TID 0000.0001) %MON trcstat_ptracer73_max        =   8.7049092507712E-04
(PID.TID 0000.0001) %MON trcstat_ptracer73_min        =   2.0364050910673E-29
(PID.TID 0000.0001) %MON trcstat_ptracer73_mean       =   2.6066553487843E-05
(PID.TID 0000.0001) %MON trcstat_ptracer73_sd         =   1.3669225631965E-04
(PID.TID 0000.0001) %MON trcstat_ptracer73_del2       =   0.0000000000000E+00
(PID.TID 0000.0001) %MON trcstat_ptracer74_max        =   8.7049046216056E-04
(PID.TID 0000.0001) %MON trcstat_ptracer74_min        =   2.0364050910673E-29
(PID.TID 0000.0001) %MON trcstat_ptracer74_mean       =   2.5957705678909E-05
(PID.TID 0000.0001) %MON trcstat_ptracer74_sd         =   1.3603751220380E-04
(PID.TID 0000.0001) %MON trcstat_ptracer74_del2       =   0.0000000000000E+00
(PID.TID 0000.0001) %MON trcstat_ptracer75_max        =   8.7049100747605E-04
(PID.TID 0000.0001) %MON trcstat_ptracer75_min        =   2.0364050910673E-29
(PID.TID 0000.0001) %MON trcstat_ptracer75_mean       =   2.6076600688630E-05
(PID.TID 0000.0001) %MON trcstat_ptracer75_sd         =   1.3675334560025E-04
(PID.TID 0000.0001) %MON trcstat_ptracer75_del2       =   0.0000000000000E+00
(PID.TID 0000.0001) %MON trcstat_ptracer76_max        =   8.7049100596130E-04
(PID.TID 0000.0001) %MON trcstat_ptracer76_min        =   2.0364050910673E-29
(PID.TID 0000.0001) %MON trcstat_ptracer76_mean       =   2.5987718407919E-05
(PID.TID 0000.0001) %MON trcstat_ptracer76_sd         =   1.3621762344934E-04
(PID.TID 0000.0001) %MON trcstat_ptracer76_del2       =   0.0000000000000E+00
(PID.TID 0000.0001) %MON trcstat_ptracer77_max        =   8.7049046195834E-04
(PID.TID 0000.0001) %MON trcstat_ptracer77_min        =   2.0364050910673E-29
(PID.TID 0000.0001) %MON trcstat_ptracer77_mean       =   2.5957705673258E-05
(PID.TID 0000.0001) %MON trcstat_ptracer77_sd         =   1.3603751217338E-04
(PID.TID 0000.0001) %MON trcstat_ptracer77_del2       =   0.0000000000000E+00
(PID.TID 0000.0001) %MON trcstat_ptracer78_max        =   8.7049094873196E-04
(PID.TID 0000.0001) %MON trcstat_ptracer78_min        =   2.0364050910673E-29
(PID.TID 0000.0001) %MON trcstat_ptracer78_mean       =   2.5968348572762E-05
(PID.TID 0000.0001) %MON trcstat_ptracer78_sd         =   1.3610159281621E-04
(PID.TID 0000.0001) %MON trcstat_ptracer78_del2       =   0.0000000000000E+00
(PID.TID 0000.0001) %MON trcstat_ptracer79_max        =   8.7049046195834E-04
(PID.TID 0000.0001) %MON trcstat_ptracer79_min        =   2.0364050910673E-29
(PID.TID 0000.0001) %MON trcstat_ptracer79_mean       =   2.5957705673256E-05
(PID.TID 0000.0001) %MON trcstat_ptracer79_sd         =   1.3603751217337E-04
(PID.TID 0000.0001) %MON trcstat_ptracer79_del2       =   0.0000000000000E+00
(PID.TID 0000.0001) %MON trcstat_ptracer80_max        =   8.7049046195834E-04
(PID.TID 0000.0001) %MON trcstat_ptracer80_min        =   2.0364050910673E-29
(PID.TID 0000.0001) %MON trcstat_ptracer80_mean       =   2.5957705673253E-05
(PID.TID 0000.0001) %MON trcstat_ptracer80_sd         =   1.3603751217335E-04
(PID.TID 0000.0001) %MON trcstat_ptracer80_del2       =   0.0000000000000E+00
(PID.TID 0000.0001) %MON trcstat_ptracer81_max        =   8.7049103893176E-04
(PID.TID 0000.0001) %MON trcstat_ptracer81_min        =   2.0364050910673E-29
(PID.TID 0000.0001) %MON trcstat_ptracer81_mean       =   2.6021964728333E-05
(PID.TID 0000.0001) %MON trcstat_ptracer81_sd         =   1.3642318299975E-04
(PID.TID 0000.0001) %MON trcstat_ptracer81_del2       =   0.0000000000000E+00
(PID.TID 0000.0001) %MON trcstat_ptracer82_max        =   8.7054553376050E-04
(PID.TID 0000.0001) %MON trcstat_ptracer82_min        =   5.8982942073970E-36
(PID.TID 0000.0001) %MON trcstat_ptracer82_mean       =   2.5957705673250E-05
(PID.TID 0000.0001) %MON trcstat_ptracer82_sd         =   1.3608945110152E-04
(PID.TID 0000.0001) %MON trcstat_ptracer82_del2       =   0.0000000000000E+00
(PID.TID 0000.0001) %MON trcstat_ptracer83_max        =   8.7049046216056E-04
(PID.TID 0000.0001) %MON trcstat_ptracer83_min        =   2.0364050910673E-29
(PID.TID 0000.0001) %MON trcstat_ptracer83_mean       =   2.5957705678905E-05
(PID.TID 0000.0001) %MON trcstat_ptracer83_sd         =   1.3603751220378E-04
(PID.TID 0000.0001) %MON trcstat_ptracer83_del2       =   0.0000000000000E+00
(PID.TID 0000.0001) %MON trcstat_ptracer84_max        =   8.7054553376050E-04
(PID.TID 0000.0001) %MON trcstat_ptracer84_min        =   5.8982942073970E-36
(PID.TID 0000.0001) %MON trcstat_ptracer84_mean       =   2.5957705673248E-05
(PID.TID 0000.0001) %MON trcstat_ptracer84_sd         =   1.3608945110150E-04
(PID.TID 0000.0001) %MON trcstat_ptracer84_del2       =   0.0000000000000E+00
(PID.TID 0000.0001) %MON trcstat_ptracer85_max        =   8.7049046195834E-04
(PID.TID 0000.0001) %MON trcstat_ptracer85_min        =   2.0364050910673E-29
(PID.TID 0000.0001) %MON trcstat_ptracer85_mean       =   2.5957705673255E-05
(PID.TID 0000.0001) %MON trcstat_ptracer85_sd         =   1.3603751217336E-04
(PID.TID 0000.0001) %MON trcstat_ptracer85_del2       =   0.0000000000000E+00
(PID.TID 0000.0001) %MON trcstat_ptracer86_max        =   8.7049102110115E-04
(PID.TID 0000.0001) %MON trcstat_ptracer86_min        =   2.0364050910673E-29
(PID.TID 0000.0001) %MON trcstat_ptracer86_mean       =   2.5975159804782E-05
(PID.TID 0000.0001) %MON trcstat_ptracer86_sd         =   1.3614245807655E-04
(PID.TID 0000.0001) %MON trcstat_ptracer86_del2       =   0.0000000000000E+00
(PID.TID 0000.0001) %MON trcstat_ptracer87_max        =   8.7054558706228E-04
(PID.TID 0000.0001) %MON trcstat_ptracer87_min        =   5.8982942073970E-36
(PID.TID 0000.0001) %MON trcstat_ptracer87_mean       =   2.6043809966554E-05
(PID.TID 0000.0001) %MON trcstat_ptracer87_sd         =   1.3660836341867E-04
(PID.TID 0000.0001) %MON trcstat_ptracer87_del2       =   0.0000000000000E+00
(PID.TID 0000.0001) %MON trcstat_ptracer88_max        =   8.7054553376050E-04
(PID.TID 0000.0001) %MON trcstat_ptracer88_min        =   5.8982942073970E-36
(PID.TID 0000.0001) %MON trcstat_ptracer88_mean       =   2.5957705673250E-05
(PID.TID 0000.0001) %MON trcstat_ptracer88_sd         =   1.3608945110152E-04
(PID.TID 0000.0001) %MON trcstat_ptracer88_del2       =   0.0000000000000E+00
(PID.TID 0000.0001) %MON trcstat_ptracer89_max        =   8.7054553376050E-04
(PID.TID 0000.0001) %MON trcstat_ptracer89_min        =   5.8982942073970E-36
(PID.TID 0000.0001) %MON trcstat_ptracer89_mean       =   2.5957705673249E-05
(PID.TID 0000.0001) %MON trcstat_ptracer89_sd         =   1.3608945110151E-04
(PID.TID 0000.0001) %MON trcstat_ptracer89_del2       =   0.0000000000000E+00
(PID.TID 0000.0001) %MON trcstat_ptracer90_max        =   8.7049046216056E-04
(PID.TID 0000.0001) %MON trcstat_ptracer90_min        =   2.0364050910673E-29
(PID.TID 0000.0001) %MON trcstat_ptracer90_mean       =   2.5957705678909E-05
(PID.TID 0000.0001) %MON trcstat_ptracer90_sd         =   1.3603751220380E-04
(PID.TID 0000.0001) %MON trcstat_ptracer90_del2       =   0.0000000000000E+00
(PID.TID 0000.0001) %MON trcstat_ptracer91_max        =   8.7054553376050E-04
(PID.TID 0000.0001) %MON trcstat_ptracer91_min        =   5.8982942073970E-36
(PID.TID 0000.0001) %MON trcstat_ptracer91_mean       =   2.5957705673249E-05
(PID.TID 0000.0001) %MON trcstat_ptracer91_sd         =   1.3608945110151E-04
(PID.TID 0000.0001) %MON trcstat_ptracer91_del2       =   0.0000000000000E+00
(PID.TID 0000.0001) %MON trcstat_ptracer92_max        =   8.7049095325618E-04
(PID.TID 0000.0001) %MON trcstat_ptracer92_min        =   2.0364050910673E-29
(PID.TID 0000.0001) %MON trcstat_ptracer92_mean       =   2.5968339318449E-05
(PID.TID 0000.0001) %MON trcstat_ptracer92_sd         =   1.3610156411690E-04
(PID.TID 0000.0001) %MON trcstat_ptracer92_del2       =   0.0000000000000E+00
(PID.TID 0000.0001) %MON trcstat_ptracer93_max        =   8.7049046216056E-04
(PID.TID 0000.0001) %MON trcstat_ptracer93_min        =   2.0364050910673E-29
(PID.TID 0000.0001) %MON trcstat_ptracer93_mean       =   2.5957705678905E-05
(PID.TID 0000.0001) %MON trcstat_ptracer93_sd         =   1.3603751220378E-04
(PID.TID 0000.0001) %MON trcstat_ptracer93_del2       =   0.0000000000000E+00
(PID.TID 0000.0001) %MON trcstat_ptracer94_max        =   8.7049090680585E-04
(PID.TID 0000.0001) %MON trcstat_ptracer94_min        =   2.0364050910673E-29
(PID.TID 0000.0001) %MON trcstat_ptracer94_mean       =   2.6061362827248E-05
(PID.TID 0000.0001) %MON trcstat_ptracer94_sd         =   1.3666073712051E-04
(PID.TID 0000.0001) %MON trcstat_ptracer94_del2       =   0.0000000000000E+00
(PID.TID 0000.0001) %MON trcstat_ptracer95_max        =   8.7049046195834E-04
(PID.TID 0000.0001) %MON trcstat_ptracer95_min        =   2.0364050910673E-29
(PID.TID 0000.0001) %MON trcstat_ptracer95_mean       =   2.5957705673253E-05
(PID.TID 0000.0001) %MON trcstat_ptracer95_sd         =   1.3603751217335E-04
(PID.TID 0000.0001) %MON trcstat_ptracer95_del2       =   0.0000000000000E+00
(PID.TID 0000.0001) %MON trcstat_ptracer96_max        =   8.7054555833462E-04
(PID.TID 0000.0001) %MON trcstat_ptracer96_min        =   5.8982942073970E-36
(PID.TID 0000.0001) %MON trcstat_ptracer96_mean       =   2.6017099881899E-05
(PID.TID 0000.0001) %MON trcstat_ptracer96_sd         =   1.3644645623644E-04
(PID.TID 0000.0001) %MON trcstat_ptracer96_del2       =   0.0000000000000E+00
(PID.TID 0000.0001) %MON trcstat_ptracer97_max        =   1.2382156049104E-07
(PID.TID 0000.0001) %MON trcstat_ptracer97_min        =   4.1431546047777E-34
(PID.TID 0000.0001) %MON trcstat_ptracer97_mean       =   1.6374291300041E-08
(PID.TID 0000.0001) %MON trcstat_ptracer97_sd         =   2.9949768166662E-08
(PID.TID 0000.0001) %MON trcstat_ptracer97_del2       =   0.0000000000000E+00
(PID.TID 0000.0001) %MON trcstat_ptracer98_max        =   1.2382363202261E-07
(PID.TID 0000.0001) %MON trcstat_ptracer98_min        =   4.1431546047784E-34
(PID.TID 0000.0001) %MON trcstat_ptracer98_mean       =   1.6374350150874E-08
(PID.TID 0000.0001) %MON trcstat_ptracer98_sd         =   2.9949965479746E-08
(PID.TID 0000.0001) %MON trcstat_ptracer98_del2       =   0.0000000000000E+00
(PID.TID 0000.0001) // =======================================================
(PID.TID 0000.0001) // End MONITOR ptracers field statistics
(PID.TID 0000.0001) // =======================================================
 Computing Diagnostic #    144  TRAC01       Counter:       1   Parms: SMR     MR      
 Computing Diagnostic #    157  TRAC02       Counter:       1   Parms: SMR     MR      
 Computing Diagnostic #    170  TRAC03       Counter:       1   Parms: SMR     MR      
 Computing Diagnostic #    183  TRAC04       Counter:       1   Parms: SMR     MR      
 Computing Diagnostic #    196  TRAC05       Counter:       1   Parms: SMR     MR      
 Computing Diagnostic #    209  TRAC06       Counter:       1   Parms: SMR     MR      
 Computing Diagnostic #    222  TRAC07       Counter:       1   Parms: SMR     MR      
 Computing Diagnostic #    235  TRAC08       Counter:       1   Parms: SMR     MR      
 Computing Diagnostic #    248  TRAC09       Counter:       1   Parms: SMR     MR      
 Computing Diagnostic #    261  TRAC10       Counter:       1   Parms: SMR     MR      
 Computing Diagnostic #    274  TRAC11       Counter:       1   Parms: SMR     MR      
 Computing Diagnostic #    287  TRAC12       Counter:       1   Parms: SMR     MR      
 Computing Diagnostic #    300  TRAC13       Counter:       1   Parms: SMR     MR      
 Computing Diagnostic #    313  TRAC14       Counter:       1   Parms: SMR     MR      
 Computing Diagnostic #    326  TRAC15       Counter:       1   Parms: SMR     MR      
 Computing Diagnostic #    339  TRAC16       Counter:       1   Parms: SMR     MR      
 Computing Diagnostic #    352  TRAC17       Counter:       1   Parms: SMR     MR      
 Computing Diagnostic #    365  TRAC18       Counter:       1   Parms: SMR     MR      
 Computing Diagnostic #    378  TRAC19       Counter:       1   Parms: SMR     MR      
 Computing Diagnostic #    391  TRAC20       Counter:       1   Parms: SMR     MR      
 Computing Diagnostic #    404  TRAC21       Counter:       1   Parms: SMR     MR      
 Computing Diagnostic #    417  TRAC22       Counter:       1   Parms: SMR     MR      
 Computing Diagnostic #    430  TRAC23       Counter:       1   Parms: SMR     MR      
 Computing Diagnostic #    443  TRAC24       Counter:       1   Parms: SMR     MR      
 Computing Diagnostic #    456  TRAC25       Counter:       1   Parms: SMR     MR      
 Computing Diagnostic #    469  TRAC26       Counter:       1   Parms: SMR     MR      
 Computing Diagnostic #    482  TRAC27       Counter:       1   Parms: SMR     MR      
 Computing Diagnostic #    495  TRAC28       Counter:       1   Parms: SMR     MR      
 Computing Diagnostic #    508  TRAC29       Counter:       1   Parms: SMR     MR      
 Computing Diagnostic #    521  TRAC30       Counter:       1   Parms: SMR     MR      
 Computing Diagnostic #    534  TRAC31       Counter:       1   Parms: SMR     MR      
 Computing Diagnostic #    547  TRAC32       Counter:       1   Parms: SMR     MR      
 Computing Diagnostic #    560  TRAC33       Counter:       1   Parms: SMR     MR      
 Computing Diagnostic #    573  TRAC34       Counter:       1   Parms: SMR     MR      
 Computing Diagnostic #    586  TRAC35       Counter:       1   Parms: SMR     MR      
 Computing Diagnostic #    599  TRAC36       Counter:       1   Parms: SMR     MR      
 Computing Diagnostic #    612  TRAC37       Counter:       1   Parms: SMR     MR      
 Computing Diagnostic #    625  TRAC38       Counter:       1   Parms: SMR     MR      
 Computing Diagnostic #    638  TRAC39       Counter:       1   Parms: SMR     MR      
 Computing Diagnostic #    651  TRAC40       Counter:       1   Parms: SMR     MR      
 Computing Diagnostic #    664  TRAC41       Counter:       1   Parms: SMR     MR      
 Computing Diagnostic #    677  TRAC42       Counter:       1   Parms: SMR     MR      
 Computing Diagnostic #    690  TRAC43       Counter:       1   Parms: SMR     MR      
 Computing Diagnostic #    703  TRAC44       Counter:       1   Parms: SMR     MR      
 Computing Diagnostic #    716  TRAC45       Counter:       1   Parms: SMR     MR      
 Computing Diagnostic #    729  TRAC46       Counter:       1   Parms: SMR     MR      
 Computing Diagnostic #    742  TRAC47       Counter:       1   Parms: SMR     MR      
 Computing Diagnostic #    755  TRAC48       Counter:       1   Parms: SMR     MR      
 Computing Diagnostic #    768  TRAC49       Counter:       1   Parms: SMR     MR      
 Computing Diagnostic #    781  TRAC50       Counter:       1   Parms: SMR     MR      
 Computing Diagnostic #    794  TRAC51       Counter:       1   Parms: SMR     MR      
 Computing Diagnostic #    807  TRAC52       Counter:       1   Parms: SMR     MR      
 Computing Diagnostic #    820  TRAC53       Counter:       1   Parms: SMR     MR      
 Computing Diagnostic #    833  TRAC54       Counter:       1   Parms: SMR     MR      
 Computing Diagnostic #    846  TRAC55       Counter:       1   Parms: SMR     MR      
 Computing Diagnostic #    859  TRAC56       Counter:       1   Parms: SMR     MR      
 Computing Diagnostic #    872  TRAC57       Counter:       1   Parms: SMR     MR      
 Computing Diagnostic #    885  TRAC58       Counter:       1   Parms: SMR     MR      
 Computing Diagnostic #    898  TRAC59       Counter:       1   Parms: SMR     MR      
 Computing Diagnostic #    911  TRAC60       Counter:       1   Parms: SMR     MR      
 Computing Diagnostic #    924  TRAC61       Counter:       1   Parms: SMR     MR      
 Computing Diagnostic #    937  TRAC62       Counter:       1   Parms: SMR     MR      
 Computing Diagnostic #    950  TRAC63       Counter:       1   Parms: SMR     MR      
 Computing Diagnostic #    963  TRAC64       Counter:       1   Parms: SMR     MR      
 Computing Diagnostic #    976  TRAC65       Counter:       1   Parms: SMR     MR      
 Computing Diagnostic #    989  TRAC66       Counter:       1   Parms: SMR     MR      
 Computing Diagnostic #   1002  TRAC67       Counter:       1   Parms: SMR     MR      
 Computing Diagnostic #   1015  TRAC68       Counter:       1   Parms: SMR     MR      
 Computing Diagnostic #   1028  TRAC69       Counter:       1   Parms: SMR     MR      
 Computing Diagnostic #   1041  TRAC70       Counter:       1   Parms: SMR     MR      
 Computing Diagnostic #   1054  TRAC71       Counter:       1   Parms: SMR     MR      
 Computing Diagnostic #   1067  TRAC72       Counter:       1   Parms: SMR     MR      
 Computing Diagnostic #   1080  TRAC73       Counter:       1   Parms: SMR     MR      
 Computing Diagnostic #   1093  TRAC74       Counter:       1   Parms: SMR     MR      
 Computing Diagnostic #   1106  TRAC75       Counter:       1   Parms: SMR     MR      
 Computing Diagnostic #   1119  TRAC76       Counter:       1   Parms: SMR     MR      
 Computing Diagnostic #   1132  TRAC77       Counter:       1   Parms: SMR     MR      
 Computing Diagnostic #   1145  TRAC78       Counter:       1   Parms: SMR     MR      
 Computing Diagnostic #   1158  TRAC79       Counter:       1   Parms: SMR     MR      
 Computing Diagnostic #   1171  TRAC80       Counter:       1   Parms: SMR     MR      
 Computing Diagnostic #   1184  TRAC81       Counter:       1   Parms: SMR     MR      
 Computing Diagnostic #   1197  TRAC82       Counter:       1   Parms: SMR     MR      
 Computing Diagnostic #   1210  TRAC83       Counter:       1   Parms: SMR     MR      
 Computing Diagnostic #   1223  TRAC84       Counter:       1   Parms: SMR     MR      
 Computing Diagnostic #   1236  TRAC85       Counter:       1   Parms: SMR     MR      
 Computing Diagnostic #   1249  TRAC86       Counter:       1   Parms: SMR     MR      
 Computing Diagnostic #   1262  TRAC87       Counter:       1   Parms: SMR     MR      
 Computing Diagnostic #   1275  TRAC88       Counter:       1   Parms: SMR     MR      
 Computing Diagnostic #   1288  TRAC89       Counter:       1   Parms: SMR     MR      
 Computing Diagnostic #   1301  TRAC90       Counter:       1   Parms: SMR     MR      
 Computing Diagnostic #   1314  TRAC91       Counter:       1   Parms: SMR     MR      
 Computing Diagnostic #   1327  TRAC92       Counter:       1   Parms: SMR     MR      
 Computing Diagnostic #   1340  TRAC93       Counter:       1   Parms: SMR     MR      
 Computing Diagnostic #   1353  TRAC94       Counter:       1   Parms: SMR     MR      
 Computing Diagnostic #   1366  TRAC95       Counter:       1   Parms: SMR     MR      
 Computing Diagnostic #   1379  TRAC96       Counter:       1   Parms: SMR     MR      
 Computing Diagnostic #   1392  TRAC97       Counter:       1   Parms: SMR     MR      
 Computing Diagnostic #   1405  TRAC98       Counter:       1   Parms: SMR     MR      
(PID.TID 0000.0001) // =======================================================
(PID.TID 0000.0001) // Begin MONITOR EXF statistics
(PID.TID 0000.0001) // =======================================================
(PID.TID 0000.0001) %MON exf_tsnumber                 =                     3
(PID.TID 0000.0001) %MON exf_time_sec                 =   1.0800000000000E+04
(PID.TID 0000.0001) %MON exf_ustress_max              =   0.0000000000000E+00
(PID.TID 0000.0001) %MON exf_ustress_min              =   0.0000000000000E+00
(PID.TID 0000.0001) %MON exf_ustress_mean             =   0.0000000000000E+00
(PID.TID 0000.0001) %MON exf_ustress_sd               =   0.0000000000000E+00
(PID.TID 0000.0001) %MON exf_ustress_del2             =   0.0000000000000E+00
(PID.TID 0000.0001) %MON exf_vstress_max              =   0.0000000000000E+00
(PID.TID 0000.0001) %MON exf_vstress_min              =   0.0000000000000E+00
(PID.TID 0000.0001) %MON exf_vstress_mean             =   0.0000000000000E+00
(PID.TID 0000.0001) %MON exf_vstress_sd               =   0.0000000000000E+00
(PID.TID 0000.0001) %MON exf_vstress_del2             =   0.0000000000000E+00
(PID.TID 0000.0001) %MON exf_hflux_max                =   0.0000000000000E+00
(PID.TID 0000.0001) %MON exf_hflux_min                =   0.0000000000000E+00
(PID.TID 0000.0001) %MON exf_hflux_mean               =   0.0000000000000E+00
(PID.TID 0000.0001) %MON exf_hflux_sd                 =   0.0000000000000E+00
(PID.TID 0000.0001) %MON exf_hflux_del2               =   0.0000000000000E+00
(PID.TID 0000.0001) %MON exf_sflux_max                =   0.0000000000000E+00
(PID.TID 0000.0001) %MON exf_sflux_min                =   0.0000000000000E+00
(PID.TID 0000.0001) %MON exf_sflux_mean               =   0.0000000000000E+00
(PID.TID 0000.0001) %MON exf_sflux_sd                 =   0.0000000000000E+00
(PID.TID 0000.0001) %MON exf_sflux_del2               =   0.0000000000000E+00
(PID.TID 0000.0001) %MON exf_uwind_max                =   0.0000000000000E+00
(PID.TID 0000.0001) %MON exf_uwind_min                =   0.0000000000000E+00
(PID.TID 0000.0001) %MON exf_uwind_mean               =   0.0000000000000E+00
(PID.TID 0000.0001) %MON exf_uwind_sd                 =   0.0000000000000E+00
(PID.TID 0000.0001) %MON exf_uwind_del2               =   0.0000000000000E+00
(PID.TID 0000.0001) %MON exf_vwind_max                =   0.0000000000000E+00
(PID.TID 0000.0001) %MON exf_vwind_min                =   0.0000000000000E+00
(PID.TID 0000.0001) %MON exf_vwind_mean               =   0.0000000000000E+00
(PID.TID 0000.0001) %MON exf_vwind_sd                 =   0.0000000000000E+00
(PID.TID 0000.0001) %MON exf_vwind_del2               =   0.0000000000000E+00
(PID.TID 0000.0001) %MON exf_wspeed_max               =   0.0000000000000E+00
(PID.TID 0000.0001) %MON exf_wspeed_min               =   0.0000000000000E+00
(PID.TID 0000.0001) %MON exf_wspeed_mean              =   0.0000000000000E+00
(PID.TID 0000.0001) %MON exf_wspeed_sd                =   0.0000000000000E+00
(PID.TID 0000.0001) %MON exf_wspeed_del2              =   0.0000000000000E+00
(PID.TID 0000.0001) %MON exf_evap_max                 =   0.0000000000000E+00
(PID.TID 0000.0001) %MON exf_evap_min                 =   0.0000000000000E+00
(PID.TID 0000.0001) %MON exf_evap_mean                =   0.0000000000000E+00
(PID.TID 0000.0001) %MON exf_evap_sd                  =   0.0000000000000E+00
(PID.TID 0000.0001) %MON exf_evap_del2                =   0.0000000000000E+00
(PID.TID 0000.0001) // =======================================================
(PID.TID 0000.0001) // End MONITOR EXF statistics
(PID.TID 0000.0001) // =======================================================
(PID.TID 0000.0001) // =======================================================
(PID.TID 0000.0001) // Begin MONITOR GUD statistics
(PID.TID 0000.0001) // =======================================================
(PID.TID 0000.0001) %MON gud_tsnumber                 =                     3
(PID.TID 0000.0001) %MON gud_time_sec                 =   1.0800000000000E+04
(PID.TID 0000.0001) %MON gud_OASIMEd01_max            =   5.1506203949451E+00
(PID.TID 0000.0001) %MON gud_OASIMEd01_min            =   5.1506203949451E+00
(PID.TID 0000.0001) %MON gud_OASIMEd01_mean           =   5.1506203949451E+00
(PID.TID 0000.0001) %MON gud_OASIMEd01_sd             =   0.0000000000000E+00
(PID.TID 0000.0001) %MON gud_OASIMEd01_del2           =   1.4568154434334E+01
(PID.TID 0000.0001) %MON gud_OASIMEd02_max            =   6.6283149639765E+00
(PID.TID 0000.0001) %MON gud_OASIMEd02_min            =   6.6283149639765E+00
(PID.TID 0000.0001) %MON gud_OASIMEd02_mean           =   6.6283149639765E+00
(PID.TID 0000.0001) %MON gud_OASIMEd02_sd             =   8.8817841970013E-16
(PID.TID 0000.0001) %MON gud_OASIMEd02_del2           =   1.8747705835472E+01
(PID.TID 0000.0001) %MON gud_OASIMEd03_max            =   8.0778097848097E+00
(PID.TID 0000.0001) %MON gud_OASIMEd03_min            =   8.0778097848097E+00
(PID.TID 0000.0001) %MON gud_OASIMEd03_mean           =   8.0778097848097E+00
(PID.TID 0000.0001) %MON gud_OASIMEd03_sd             =   0.0000000000000E+00
(PID.TID 0000.0001) %MON gud_OASIMEd03_del2           =   2.2847496303896E+01
(PID.TID 0000.0001) %MON gud_OASIMEd04_max            =   8.5123907347520E+00
(PID.TID 0000.0001) %MON gud_OASIMEd04_min            =   8.5123907347520E+00
(PID.TID 0000.0001) %MON gud_OASIMEd04_mean           =   8.5123907347520E+00
(PID.TID 0000.0001) %MON gud_OASIMEd04_sd             =   0.0000000000000E+00
(PID.TID 0000.0001) %MON gud_OASIMEd04_del2           =   2.4076676850611E+01
(PID.TID 0000.0001) %MON gud_OASIMEd05_max            =   8.5209681411584E+00
(PID.TID 0000.0001) %MON gud_OASIMEd05_min            =   8.5209681411584E+00
(PID.TID 0000.0001) %MON gud_OASIMEd05_mean           =   8.5209681411584E+00
(PID.TID 0000.0001) %MON gud_OASIMEd05_sd             =   0.0000000000000E+00
(PID.TID 0000.0001) %MON gud_OASIMEd05_del2           =   2.4100937419551E+01
(PID.TID 0000.0001) %MON gud_OASIMEd06_max            =   8.3567232926687E+00
(PID.TID 0000.0001) %MON gud_OASIMEd06_min            =   8.3567232926687E+00
(PID.TID 0000.0001) %MON gud_OASIMEd06_mean           =   8.3567232926687E+00
(PID.TID 0000.0001) %MON gud_OASIMEd06_sd             =   0.0000000000000E+00
(PID.TID 0000.0001) %MON gud_OASIMEd06_del2           =   2.3636382834982E+01
(PID.TID 0000.0001) %MON gud_OASIMEd07_max            =   8.4534089187781E+00
(PID.TID 0000.0001) %MON gud_OASIMEd07_min            =   8.4534089187781E+00
(PID.TID 0000.0001) %MON gud_OASIMEd07_mean           =   8.4534089187781E+00
(PID.TID 0000.0001) %MON gud_OASIMEd07_sd             =   0.0000000000000E+00
(PID.TID 0000.0001) %MON gud_OASIMEd07_del2           =   2.3909851082443E+01
(PID.TID 0000.0001) %MON gud_OASIMEd08_max            =   8.3230028092861E+00
(PID.TID 0000.0001) %MON gud_OASIMEd08_min            =   8.3230028092861E+00
(PID.TID 0000.0001) %MON gud_OASIMEd08_mean           =   8.3230028092861E+00
(PID.TID 0000.0001) %MON gud_OASIMEd08_sd             =   0.0000000000000E+00
(PID.TID 0000.0001) %MON gud_OASIMEd08_del2           =   2.3541006905124E+01
(PID.TID 0000.0001) %MON gud_OASIMEd09_max            =   7.8937452296416E+00
(PID.TID 0000.0001) %MON gud_OASIMEd09_min            =   7.8937452296416E+00
(PID.TID 0000.0001) %MON gud_OASIMEd09_mean           =   7.8937452296416E+00
(PID.TID 0000.0001) %MON gud_OASIMEd09_sd             =   0.0000000000000E+00
(PID.TID 0000.0001) %MON gud_OASIMEd09_del2           =   2.2326883123354E+01
(PID.TID 0000.0001) %MON gud_OASIMEd10_max            =   7.8298133989175E+00
(PID.TID 0000.0001) %MON gud_OASIMEd10_min            =   7.8298133989175E+00
(PID.TID 0000.0001) %MON gud_OASIMEd10_mean           =   7.8298133989175E+00
(PID.TID 0000.0001) %MON gud_OASIMEd10_sd             =   0.0000000000000E+00
(PID.TID 0000.0001) %MON gud_OASIMEd10_del2           =   2.2146056599199E+01
(PID.TID 0000.0001) %MON gud_OASIMEd11_max            =   7.3998654981454E+00
(PID.TID 0000.0001) %MON gud_OASIMEd11_min            =   7.3998654981454E+00
(PID.TID 0000.0001) %MON gud_OASIMEd11_mean           =   7.3998654981454E+00
(PID.TID 0000.0001) %MON gud_OASIMEd11_sd             =   0.0000000000000E+00
(PID.TID 0000.0001) %MON gud_OASIMEd11_del2           =   2.0929980294428E+01
(PID.TID 0000.0001) %MON gud_OASIMEd12_max            =   6.7475371559461E+00
(PID.TID 0000.0001) %MON gud_OASIMEd12_min            =   6.7475371559461E+00
(PID.TID 0000.0001) %MON gud_OASIMEd12_mean           =   6.7475371559461E+00
(PID.TID 0000.0001) %MON gud_OASIMEd12_sd             =   0.0000000000000E+00
(PID.TID 0000.0001) %MON gud_OASIMEd12_del2           =   1.9084917117111E+01
(PID.TID 0000.0001) %MON gud_OASIMEd13_max            =   3.3254480908314E+00
(PID.TID 0000.0001) %MON gud_OASIMEd13_min            =   3.3254480908314E+00
(PID.TID 0000.0001) %MON gud_OASIMEd13_mean           =   3.3254480908314E+00
(PID.TID 0000.0001) %MON gud_OASIMEd13_sd             =   0.0000000000000E+00
(PID.TID 0000.0001) %MON gud_OASIMEd13_del2           =   9.4057875820431E+00
(PID.TID 0000.0001) %MON gud_OASIMEs01_max            =   3.8708240101735E+00
(PID.TID 0000.0001) %MON gud_OASIMEs01_min            =   3.8708240101735E+00
(PID.TID 0000.0001) %MON gud_OASIMEs01_mean           =   3.8708240101735E+00
(PID.TID 0000.0001) %MON gud_OASIMEs01_sd             =   0.0000000000000E+00
(PID.TID 0000.0001) %MON gud_OASIMEs01_del2           =   1.0948343625493E+01
(PID.TID 0000.0001) %MON gud_OASIMEs02_max            =   4.4514794925849E+00
(PID.TID 0000.0001) %MON gud_OASIMEs02_min            =   4.4514794925849E+00
(PID.TID 0000.0001) %MON gud_OASIMEs02_mean           =   4.4514794925849E+00
(PID.TID 0000.0001) %MON gud_OASIMEs02_sd             =   0.0000000000000E+00
(PID.TID 0000.0001) %MON gud_OASIMEs02_del2           =   1.2590685342078E+01
(PID.TID 0000.0001) %MON gud_OASIMEs03_max            =   5.0450981140137E+00
(PID.TID 0000.0001) %MON gud_OASIMEs03_min            =   5.0450981140137E+00
(PID.TID 0000.0001) %MON gud_OASIMEs03_mean           =   5.0450981140137E+00
(PID.TID 0000.0001) %MON gud_OASIMEs03_sd             =   8.8817841970013E-16
(PID.TID 0000.0001) %MON gud_OASIMEs03_del2           =   1.4269692352682E+01
(PID.TID 0000.0001) %MON gud_OASIMEs04_max            =   4.9428132792314E+00
(PID.TID 0000.0001) %MON gud_OASIMEs04_min            =   4.9428132792314E+00
(PID.TID 0000.0001) %MON gud_OASIMEs04_mean           =   4.9428132792314E+00
(PID.TID 0000.0001) %MON gud_OASIMEs04_sd             =   0.0000000000000E+00
(PID.TID 0000.0001) %MON gud_OASIMEs04_del2           =   1.3980387151534E+01
(PID.TID 0000.0001) %MON gud_OASIMEs05_max            =   4.6598944703738E+00
(PID.TID 0000.0001) %MON gud_OASIMEs05_min            =   4.6598944703738E+00
(PID.TID 0000.0001) %MON gud_OASIMEs05_mean           =   4.6598944703738E+00
(PID.TID 0000.0001) %MON gud_OASIMEs05_sd             =   0.0000000000000E+00
(PID.TID 0000.0001) %MON gud_OASIMEs05_del2           =   1.3180171918460E+01
(PID.TID 0000.0001) %MON gud_OASIMEs06_max            =   4.3338216374318E+00
(PID.TID 0000.0001) %MON gud_OASIMEs06_min            =   4.3338216374318E+00
(PID.TID 0000.0001) %MON gud_OASIMEs06_mean           =   4.3338216374318E+00
(PID.TID 0000.0001) %MON gud_OASIMEs06_sd             =   0.0000000000000E+00
(PID.TID 0000.0001) %MON gud_OASIMEs06_del2           =   1.2257898673124E+01
(PID.TID 0000.0001) %MON gud_OASIMEs07_max            =   4.2095542867978E+00
(PID.TID 0000.0001) %MON gud_OASIMEs07_min            =   4.2095542867978E+00
(PID.TID 0000.0001) %MON gud_OASIMEs07_mean           =   4.2095542867978E+00
(PID.TID 0000.0001) %MON gud_OASIMEs07_sd             =   0.0000000000000E+00
(PID.TID 0000.0001) %MON gud_OASIMEs07_del2           =   1.1906417527871E+01
(PID.TID 0000.0001) %MON gud_OASIMEs08_max            =   4.0404048144817E+00
(PID.TID 0000.0001) %MON gud_OASIMEs08_min            =   4.0404048144817E+00
(PID.TID 0000.0001) %MON gud_OASIMEs08_mean           =   4.0404048144817E+00
(PID.TID 0000.0001) %MON gud_OASIMEs08_sd             =   0.0000000000000E+00
(PID.TID 0000.0001) %MON gud_OASIMEs08_del2           =   1.1427990572235E+01
(PID.TID 0000.0001) %MON gud_OASIMEs09_max            =   3.7294194191694E+00
(PID.TID 0000.0001) %MON gud_OASIMEs09_min            =   3.7294194191694E+00
(PID.TID 0000.0001) %MON gud_OASIMEs09_mean           =   3.7294194191694E+00
(PID.TID 0000.0001) %MON gud_OASIMEs09_sd             =   0.0000000000000E+00
(PID.TID 0000.0001) %MON gud_OASIMEs09_del2           =   1.0548391044734E+01
(PID.TID 0000.0001) %MON gud_OASIMEs10_max            =   3.6340814918280E+00
(PID.TID 0000.0001) %MON gud_OASIMEs10_min            =   3.6340814918280E+00
(PID.TID 0000.0001) %MON gud_OASIMEs10_mean           =   3.6340814918280E+00
(PID.TID 0000.0001) %MON gud_OASIMEs10_sd             =   0.0000000000000E+00
(PID.TID 0000.0001) %MON gud_OASIMEs10_del2           =   1.0278734665024E+01
(PID.TID 0000.0001) %MON gud_OASIMEs11_max            =   3.4198225726684E+00
(PID.TID 0000.0001) %MON gud_OASIMEs11_min            =   3.4198225726684E+00
(PID.TID 0000.0001) %MON gud_OASIMEs11_mean           =   3.4198225726684E+00
(PID.TID 0000.0001) %MON gud_OASIMEs11_sd             =   0.0000000000000E+00
(PID.TID 0000.0001) %MON gud_OASIMEs11_del2           =   9.6727189263546E+00
(PID.TID 0000.0001) %MON gud_OASIMEs12_max            =   3.0610342999299E+00
(PID.TID 0000.0001) %MON gud_OASIMEs12_min            =   3.0610342999299E+00
(PID.TID 0000.0001) %MON gud_OASIMEs12_mean           =   3.0610342999299E+00
(PID.TID 0000.0001) %MON gud_OASIMEs12_sd             =   0.0000000000000E+00
(PID.TID 0000.0001) %MON gud_OASIMEs12_del2           =   8.6579124437003E+00
(PID.TID 0000.0001) %MON gud_OASIMEs13_max            =   1.5060487175981E+00
(PID.TID 0000.0001) %MON gud_OASIMEs13_min            =   1.5060487175981E+00
(PID.TID 0000.0001) %MON gud_OASIMEs13_mean           =   1.5060487175981E+00
(PID.TID 0000.0001) %MON gud_OASIMEs13_sd             =   0.0000000000000E+00
(PID.TID 0000.0001) %MON gud_OASIMEs13_del2           =   4.2597490440437E+00
(PID.TID 0000.0001) %MON gud_surfPAR_max              =   0.0000000000000E+00
(PID.TID 0000.0001) %MON gud_surfPAR_min              =   0.0000000000000E+00
(PID.TID 0000.0001) %MON gud_surfPAR_mean             =   0.0000000000000E+00
(PID.TID 0000.0001) %MON gud_surfPAR_sd               =   0.0000000000000E+00
(PID.TID 0000.0001) %MON gud_surfPAR_del2             =   0.0000000000000E+00
(PID.TID 0000.0001) %MON gud_inputFe_max              =   9.9999999600420E-09
(PID.TID 0000.0001) %MON gud_inputFe_min              =   9.9999999600420E-09
(PID.TID 0000.0001) %MON gud_inputFe_mean             =   9.9999999600420E-09
(PID.TID 0000.0001) %MON gud_inputFe_sd               =   0.0000000000000E+00
(PID.TID 0000.0001) %MON gud_inputFe_del2             =   2.8284271134444E-08
(PID.TID 0000.0001) %MON gud_iceFrac_max              =   0.0000000000000E+00
(PID.TID 0000.0001) %MON gud_iceFrac_min              =   0.0000000000000E+00
(PID.TID 0000.0001) %MON gud_iceFrac_mean             =   0.0000000000000E+00
(PID.TID 0000.0001) %MON gud_iceFrac_sd               =   0.0000000000000E+00
(PID.TID 0000.0001) %MON gud_iceFrac_del2             =   0.0000000000000E+00
(PID.TID 0000.0001) %MON gud_windSpeed_max            =   0.0000000000000E+00
(PID.TID 0000.0001) %MON gud_windSpeed_min            =   0.0000000000000E+00
(PID.TID 0000.0001) %MON gud_windSpeed_mean           =   0.0000000000000E+00
(PID.TID 0000.0001) %MON gud_windSpeed_sd             =   0.0000000000000E+00
(PID.TID 0000.0001) %MON gud_windSpeed_del2           =   0.0000000000000E+00
(PID.TID 0000.0001) %MON gud_atmospCO2_max            =   0.0000000000000E+00
(PID.TID 0000.0001) %MON gud_atmospCO2_min            =   0.0000000000000E+00
(PID.TID 0000.0001) %MON gud_atmospCO2_mean           =   0.0000000000000E+00
(PID.TID 0000.0001) %MON gud_atmospCO2_sd             =   0.0000000000000E+00
(PID.TID 0000.0001) %MON gud_atmospCO2_del2           =   0.0000000000000E+00
(PID.TID 0000.0001) // =======================================================
(PID.TID 0000.0001) // End MONITOR GUD statistics
(PID.TID 0000.0001) // =======================================================
 Local pointing vectors
 no(2) =   0.27363063147685535      -0.12470066308196398       0.95371695074822704     
 ea(2) =   0.41469324265623930       0.90996127087654310        0.0000000000000000     
 up(2) =   0.86784548855935806      -0.39549997488200311      -0.30070579950427312     
(PID.TID 0000.0001) // =======================================================
(PID.TID 0000.0001) // Begin MONITOR dynamic field statistics
(PID.TID 0000.0001) // =======================================================
(PID.TID 0000.0001) %MON time_tsnumber                =                     4
(PID.TID 0000.0001) %MON time_secondsf                =   1.4400000000000E+04
(PID.TID 0000.0001) %MON dynstat_eta_max              =   0.0000000000000E+00
(PID.TID 0000.0001) %MON dynstat_eta_min              =   0.0000000000000E+00
(PID.TID 0000.0001) %MON dynstat_eta_mean             =   0.0000000000000E+00
(PID.TID 0000.0001) %MON dynstat_eta_sd               =   0.0000000000000E+00
(PID.TID 0000.0001) %MON dynstat_eta_del2             =   0.0000000000000E+00
(PID.TID 0000.0001) %MON dynstat_uvel_max             =   0.0000000000000E+00
(PID.TID 0000.0001) %MON dynstat_uvel_min             =   0.0000000000000E+00
(PID.TID 0000.0001) %MON dynstat_uvel_mean            =   0.0000000000000E+00
(PID.TID 0000.0001) %MON dynstat_uvel_sd              =   0.0000000000000E+00
(PID.TID 0000.0001) %MON dynstat_uvel_del2            =   0.0000000000000E+00
(PID.TID 0000.0001) %MON dynstat_vvel_max             =   0.0000000000000E+00
(PID.TID 0000.0001) %MON dynstat_vvel_min             =   0.0000000000000E+00
(PID.TID 0000.0001) %MON dynstat_vvel_mean            =   0.0000000000000E+00
(PID.TID 0000.0001) %MON dynstat_vvel_sd              =   0.0000000000000E+00
(PID.TID 0000.0001) %MON dynstat_vvel_del2            =   0.0000000000000E+00
(PID.TID 0000.0001) %MON dynstat_wvel_max             =   0.0000000000000E+00
(PID.TID 0000.0001) %MON dynstat_wvel_min             =   0.0000000000000E+00
(PID.TID 0000.0001) %MON dynstat_wvel_mean            =   0.0000000000000E+00
(PID.TID 0000.0001) %MON dynstat_wvel_sd              =   0.0000000000000E+00
(PID.TID 0000.0001) %MON dynstat_wvel_del2            =   0.0000000000000E+00
(PID.TID 0000.0001) %MON dynstat_theta_max            =   2.6307340345579E+01
(PID.TID 0000.0001) %MON dynstat_theta_min            =   2.6737009916297E+00
(PID.TID 0000.0001) %MON dynstat_theta_mean           =   5.4734908053328E+00
(PID.TID 0000.0001) %MON dynstat_theta_sd             =   5.1967318185908E+00
(PID.TID 0000.0001) %MON dynstat_theta_del2           =   0.0000000000000E+00
(PID.TID 0000.0001) %MON dynstat_salt_max             =   3.5000000000000E+01
(PID.TID 0000.0001) %MON dynstat_salt_min             =   3.5000000000000E+01
(PID.TID 0000.0001) %MON dynstat_salt_mean            =   3.5000000000000E+01
(PID.TID 0000.0001) %MON dynstat_salt_sd              =   7.1054273576010E-15
(PID.TID 0000.0001) %MON dynstat_salt_del2            =   0.0000000000000E+00
(PID.TID 0000.0001) %MON dynstat_sst_max              =   2.6307340345579E+01
(PID.TID 0000.0001) %MON dynstat_sst_min              =   2.6307340345579E+01
(PID.TID 0000.0001) %MON dynstat_sst_mean             =   2.6307340345579E+01
(PID.TID 0000.0001) %MON dynstat_sst_sd               =   0.0000000000000E+00
(PID.TID 0000.0001) %MON dynstat_sst_del2             =   0.0000000000000E+00
(PID.TID 0000.0001) %MON dynstat_sss_max              =   3.5000000000000E+01
(PID.TID 0000.0001) %MON dynstat_sss_min              =   3.5000000000000E+01
(PID.TID 0000.0001) %MON dynstat_sss_mean             =   3.5000000000000E+01
(PID.TID 0000.0001) %MON dynstat_sss_sd               =   0.0000000000000E+00
(PID.TID 0000.0001) %MON dynstat_sss_del2             =   0.0000000000000E+00
(PID.TID 0000.0001) %MON forcing_qnet_max             =   0.0000000000000E+00
(PID.TID 0000.0001) %MON forcing_qnet_min             =   0.0000000000000E+00
(PID.TID 0000.0001) %MON forcing_qnet_mean            =   0.0000000000000E+00
(PID.TID 0000.0001) %MON forcing_qnet_sd              =   0.0000000000000E+00
(PID.TID 0000.0001) %MON forcing_qnet_del2            =   0.0000000000000E+00
(PID.TID 0000.0001) %MON forcing_qsw_max              =   0.0000000000000E+00
(PID.TID 0000.0001) %MON forcing_qsw_min              =   0.0000000000000E+00
(PID.TID 0000.0001) %MON forcing_qsw_mean             =   0.0000000000000E+00
(PID.TID 0000.0001) %MON forcing_qsw_sd               =   0.0000000000000E+00
(PID.TID 0000.0001) %MON forcing_qsw_del2             =   0.0000000000000E+00
(PID.TID 0000.0001) %MON forcing_empmr_max            =   0.0000000000000E+00
(PID.TID 0000.0001) %MON forcing_empmr_min            =   0.0000000000000E+00
(PID.TID 0000.0001) %MON forcing_empmr_mean           =   0.0000000000000E+00
(PID.TID 0000.0001) %MON forcing_empmr_sd             =   0.0000000000000E+00
(PID.TID 0000.0001) %MON forcing_empmr_del2           =   0.0000000000000E+00
(PID.TID 0000.0001) %MON forcing_fu_max               =   0.0000000000000E+00
(PID.TID 0000.0001) %MON forcing_fu_min               =   0.0000000000000E+00
(PID.TID 0000.0001) %MON forcing_fu_mean              =   0.0000000000000E+00
(PID.TID 0000.0001) %MON forcing_fu_sd                =   0.0000000000000E+00
(PID.TID 0000.0001) %MON forcing_fu_del2              =   0.0000000000000E+00
(PID.TID 0000.0001) %MON forcing_fv_max               =   0.0000000000000E+00
(PID.TID 0000.0001) %MON forcing_fv_min               =   0.0000000000000E+00
(PID.TID 0000.0001) %MON forcing_fv_mean              =   0.0000000000000E+00
(PID.TID 0000.0001) %MON forcing_fv_sd                =   0.0000000000000E+00
(PID.TID 0000.0001) %MON forcing_fv_del2              =   0.0000000000000E+00
(PID.TID 0000.0001) %MON advcfl_uvel_max              =   0.0000000000000E+00
(PID.TID 0000.0001) %MON advcfl_vvel_max              =   0.0000000000000E+00
(PID.TID 0000.0001) %MON advcfl_wvel_max              =   0.0000000000000E+00
(PID.TID 0000.0001) %MON advcfl_W_hf_max              =   0.0000000000000E+00
(PID.TID 0000.0001) %MON pe_b_mean                    =   0.0000000000000E+00
(PID.TID 0000.0001) %MON ke_max                       =   0.0000000000000E+00
(PID.TID 0000.0001) %MON ke_mean                      =   0.0000000000000E+00
(PID.TID 0000.0001) %MON ke_vol                       =   4.1199767883485E+13
(PID.TID 0000.0001) %MON vort_r_min                   =   0.0000000000000E+00
(PID.TID 0000.0001) %MON vort_r_max                   =   0.0000000000000E+00
(PID.TID 0000.0001) %MON vort_a_mean                  =  -4.5067801836625E-05
(PID.TID 0000.0001) %MON vort_a_sd                    =  -4.1359030627651E-25
(PID.TID 0000.0001) %MON vort_p_mean                  =  -4.5067801836625E-05
(PID.TID 0000.0001) %MON vort_p_sd                    =   0.0000000000000E+00
(PID.TID 0000.0001) %MON surfExpan_theta_mean         =   0.0000000000000E+00
(PID.TID 0000.0001) %MON surfExpan_salt_mean          =   0.0000000000000E+00
(PID.TID 0000.0001) // =======================================================
(PID.TID 0000.0001) // End MONITOR dynamic field statistics
(PID.TID 0000.0001) // =======================================================
(PID.TID 0000.0001) // =======================================================
(PID.TID 0000.0001) // Begin MONITOR ptracer field statistics
(PID.TID 0000.0001) // =======================================================
(PID.TID 0000.0001) %MON trcstat_ptracer01_max        =   2.0000000007655E+03
(PID.TID 0000.0001) %MON trcstat_ptracer01_min        =   1.9999994275299E+03
(PID.TID 0000.0001) %MON trcstat_ptracer01_mean       =   1.9999999974497E+03
(PID.TID 0000.0001) %MON trcstat_ptracer01_sd         =   3.3796124132159E-05
(PID.TID 0000.0001) %MON trcstat_ptracer01_del2       =   0.0000000000000E+00
(PID.TID 0000.0001) %MON trcstat_ptracer02_max        =   1.8164658705932E-02
(PID.TID 0000.0001) %MON trcstat_ptracer02_min        =   1.3251614798422E-07
(PID.TID 0000.0001) %MON trcstat_ptracer02_mean       =   4.6201635541631E-04
(PID.TID 0000.0001) %MON trcstat_ptracer02_sd         =   2.4926492280426E-03
(PID.TID 0000.0001) %MON trcstat_ptracer02_del2       =   0.0000000000000E+00
(PID.TID 0000.0001) %MON trcstat_ptracer03_max        =   1.8872935236885E-02
(PID.TID 0000.0001) %MON trcstat_ptracer03_min        =   3.8702059435013E-06
(PID.TID 0000.0001) %MON trcstat_ptracer03_mean       =   7.4108969040192E-04
(PID.TID 0000.0001) %MON trcstat_ptracer03_sd         =   2.3768292798275E-03
(PID.TID 0000.0001) %MON trcstat_ptracer03_del2       =   0.0000000000000E+00
(PID.TID 0000.0001) %MON trcstat_ptracer04_max        =   3.3903492978667E+01
(PID.TID 0000.0001) %MON trcstat_ptracer04_min        =   4.6769842052534E-02
(PID.TID 0000.0001) %MON trcstat_ptracer04_mean       =   2.3502400352484E+01
(PID.TID 0000.0001) %MON trcstat_ptracer04_sd         =   7.8161704273695E+00
(PID.TID 0000.0001) %MON trcstat_ptracer04_del2       =   0.0000000000000E+00
(PID.TID 0000.0001) %MON trcstat_ptracer05_max        =   2.2436991577659E+00
(PID.TID 0000.0001) %MON trcstat_ptracer05_min        =   2.1026199909394E-01
(PID.TID 0000.0001) %MON trcstat_ptracer05_mean       =   1.5821340820093E+00
(PID.TID 0000.0001) %MON trcstat_ptracer05_sd         =   4.6734902510762E-01
(PID.TID 0000.0001) %MON trcstat_ptracer05_del2       =   0.0000000000000E+00
(PID.TID 0000.0001) %MON trcstat_ptracer06_max        =   3.9387400649807E+01
(PID.TID 0000.0001) %MON trcstat_ptracer06_min        =   1.2248195260625E+00
(PID.TID 0000.0001) %MON trcstat_ptracer06_mean       =   2.9621891779955E+01
(PID.TID 0000.0001) %MON trcstat_ptracer06_sd         =   1.1270579942547E+01
(PID.TID 0000.0001) %MON trcstat_ptracer06_del2       =   0.0000000000000E+00
(PID.TID 0000.0001) %MON trcstat_ptracer07_max        =   1.3005209609891E-03
(PID.TID 0000.0001) %MON trcstat_ptracer07_min        =   1.2999415637157E-03
(PID.TID 0000.0001) %MON trcstat_ptracer07_mean       =   1.2999435482289E-03
(PID.TID 0000.0001) %MON trcstat_ptracer07_sd         =   3.0963970991887E-08
(PID.TID 0000.0001) %MON trcstat_ptracer07_del2       =   0.0000000000000E+00
(PID.TID 0000.0001) %MON trcstat_ptracer08_max        =   7.9744959943255E-03
(PID.TID 0000.0001) %MON trcstat_ptracer08_min        =  -2.1590677653941E-06
(PID.TID 0000.0001) %MON trcstat_ptracer08_mean       =   7.3101470217447E-05
(PID.TID 0000.0001) %MON trcstat_ptracer08_sd         =   5.2914512466457E-04
(PID.TID 0000.0001) %MON trcstat_ptracer08_del2       =   0.0000000000000E+00
(PID.TID 0000.0001) %MON trcstat_ptracer09_max        =   8.2743645046930E-02
(PID.TID 0000.0001) %MON trcstat_ptracer09_min        =   6.1342252845584E-08
(PID.TID 0000.0001) %MON trcstat_ptracer09_mean       =   3.4439906864247E-03
(PID.TID 0000.0001) %MON trcstat_ptracer09_sd         =   1.4815945240268E-02
(PID.TID 0000.0001) %MON trcstat_ptracer09_del2       =   0.0000000000000E+00
(PID.TID 0000.0001) %MON trcstat_ptracer10_max        =   5.1714778154331E-03
(PID.TID 0000.0001) %MON trcstat_ptracer10_min        =   3.8338908028490E-09
(PID.TID 0000.0001) %MON trcstat_ptracer10_mean       =   2.1524941790154E-04
(PID.TID 0000.0001) %MON trcstat_ptracer10_sd         =   9.2599657751673E-04
(PID.TID 0000.0001) %MON trcstat_ptracer10_del2       =   0.0000000000000E+00
(PID.TID 0000.0001) %MON trcstat_ptracer11_max        =   5.1714778040315E-06
(PID.TID 0000.0001) %MON trcstat_ptracer11_min        =   3.8338903744499E-12
(PID.TID 0000.0001) %MON trcstat_ptracer11_mean       =   2.1524941820929E-07
(PID.TID 0000.0001) %MON trcstat_ptracer11_sd         =   9.2599657714536E-07
(PID.TID 0000.0001) %MON trcstat_ptracer11_del2       =   0.0000000000000E+00
(PID.TID 0000.0001) %MON trcstat_ptracer12_max        =   4.1094439557971E-04
(PID.TID 0000.0001) %MON trcstat_ptracer12_min        =   4.4405372022028E-26
(PID.TID 0000.0001) %MON trcstat_ptracer12_mean       =   1.2267526171230E-05
(PID.TID 0000.0001) %MON trcstat_ptracer12_sd         =   6.4075870234819E-05
(PID.TID 0000.0001) %MON trcstat_ptracer12_del2       =   0.0000000000000E+00
(PID.TID 0000.0001) %MON trcstat_ptracer13_max        =   4.3444029282961E-03
(PID.TID 0000.0001) %MON trcstat_ptracer13_min        =   1.8829962345039E-05
(PID.TID 0000.0001) %MON trcstat_ptracer13_mean       =   1.2603405749614E-03
(PID.TID 0000.0001) %MON trcstat_ptracer13_sd         =   1.5417300357113E-03
(PID.TID 0000.0001) %MON trcstat_ptracer13_del2       =   0.0000000000000E+00
(PID.TID 0000.0001) %MON trcstat_ptracer14_max        =   2.7152518301851E-04
(PID.TID 0000.0001) %MON trcstat_ptracer14_min        =   1.1768726465650E-06
(PID.TID 0000.0001) %MON trcstat_ptracer14_mean       =   7.8771285935090E-05
(PID.TID 0000.0001) %MON trcstat_ptracer14_sd         =   9.6358127231955E-05
(PID.TID 0000.0001) %MON trcstat_ptracer14_del2       =   0.0000000000000E+00
(PID.TID 0000.0001) %MON trcstat_ptracer15_max        =   1.6239075643479E-02
(PID.TID 0000.0001) %MON trcstat_ptracer15_min        =   1.1401897530467E-03
(PID.TID 0000.0001) %MON trcstat_ptracer15_mean       =   5.4875214333308E-03
(PID.TID 0000.0001) %MON trcstat_ptracer15_sd         =   5.1667184900451E-03
(PID.TID 0000.0001) %MON trcstat_ptracer15_del2       =   0.0000000000000E+00
(PID.TID 0000.0001) %MON trcstat_ptracer16_max        =   2.7152519897930E-07
(PID.TID 0000.0001) %MON trcstat_ptracer16_min        =   1.1768725182750E-09
(PID.TID 0000.0001) %MON trcstat_ptracer16_mean       =   7.8771286459957E-08
(PID.TID 0000.0001) %MON trcstat_ptracer16_sd         =   9.6358129286029E-08
(PID.TID 0000.0001) %MON trcstat_ptracer16_del2       =   0.0000000000000E+00
(PID.TID 0000.0001) %MON trcstat_ptracer17_max        =   0.0000000000000E+00
(PID.TID 0000.0001) %MON trcstat_ptracer17_min        =   0.0000000000000E+00
(PID.TID 0000.0001) %MON trcstat_ptracer17_mean       =   0.0000000000000E+00
(PID.TID 0000.0001) %MON trcstat_ptracer17_sd         =   0.0000000000000E+00
(PID.TID 0000.0001) %MON trcstat_ptracer17_del2       =   0.0000000000000E+00
(PID.TID 0000.0001) %MON trcstat_ptracer18_max        =   5.1066355814567E-03
(PID.TID 0000.0001) %MON trcstat_ptracer18_min        =   7.8266609063161E-11
(PID.TID 0000.0001) %MON trcstat_ptracer18_mean       =   2.1430661444967E-04
(PID.TID 0000.0001) %MON trcstat_ptracer18_sd         =   9.2229873076665E-04
(PID.TID 0000.0001) %MON trcstat_ptracer18_del2       =   0.0000000000000E+00
(PID.TID 0000.0001) %MON trcstat_ptracer19_max        =   8.6683865064328E-04
(PID.TID 0000.0001) %MON trcstat_ptracer19_min        =   1.6992725818009E-27
(PID.TID 0000.0001) %MON trcstat_ptracer19_mean       =   2.5849548567552E-05
(PID.TID 0000.0001) %MON trcstat_ptracer19_sd         =   1.3545288047753E-04
(PID.TID 0000.0001) %MON trcstat_ptracer19_del2       =   0.0000000000000E+00
(PID.TID 0000.0001) %MON trcstat_ptracer20_max        =   8.6691182292353E-04
(PID.TID 0000.0001) %MON trcstat_ptracer20_min        =   1.3739850072296E-35
(PID.TID 0000.0001) %MON trcstat_ptracer20_mean       =   2.5928585797771E-05
(PID.TID 0000.0001) %MON trcstat_ptracer20_sd         =   1.3599778225443E-04
(PID.TID 0000.0001) %MON trcstat_ptracer20_del2       =   0.0000000000000E+00
(PID.TID 0000.0001) %MON trcstat_ptracer21_max        =   8.6683865064328E-04
(PID.TID 0000.0001) %MON trcstat_ptracer21_min        =   1.6992725818009E-27
(PID.TID 0000.0001) %MON trcstat_ptracer21_mean       =   2.5849548567554E-05
(PID.TID 0000.0001) %MON trcstat_ptracer21_sd         =   1.3545288047754E-04
(PID.TID 0000.0001) %MON trcstat_ptracer21_del2       =   0.0000000000000E+00
(PID.TID 0000.0001) %MON trcstat_ptracer22_max        =   8.6683988804872E-04
(PID.TID 0000.0001) %MON trcstat_ptracer22_min        =   1.6992725818009E-27
(PID.TID 0000.0001) %MON trcstat_ptracer22_mean       =   2.5962014566369E-05
(PID.TID 0000.0001) %MON trcstat_ptracer22_sd         =   1.3612921987585E-04
(PID.TID 0000.0001) %MON trcstat_ptracer22_del2       =   0.0000000000000E+00
(PID.TID 0000.0001) %MON trcstat_ptracer23_max        =   8.6691209882952E-04
(PID.TID 0000.0001) %MON trcstat_ptracer23_min        =   1.3739850072296E-35
(PID.TID 0000.0001) %MON trcstat_ptracer23_mean       =   2.6003165433940E-05
(PID.TID 0000.0001) %MON trcstat_ptracer23_sd         =   1.3645216179749E-04
(PID.TID 0000.0001) %MON trcstat_ptracer23_del2       =   0.0000000000000E+00
(PID.TID 0000.0001) %MON trcstat_ptracer24_max        =   8.6691171288649E-04
(PID.TID 0000.0001) %MON trcstat_ptracer24_min        =   1.3739850072296E-35
(PID.TID 0000.0001) %MON trcstat_ptracer24_mean       =   2.5849548560047E-05
(PID.TID 0000.0001) %MON trcstat_ptracer24_sd         =   1.3552172203847E-04
(PID.TID 0000.0001) %MON trcstat_ptracer24_del2       =   0.0000000000000E+00
(PID.TID 0000.0001) %MON trcstat_ptracer25_max        =   8.6691173768915E-04
(PID.TID 0000.0001) %MON trcstat_ptracer25_min        =   1.3739850072296E-35
(PID.TID 0000.0001) %MON trcstat_ptracer25_mean       =   2.5890890052818E-05
(PID.TID 0000.0001) %MON trcstat_ptracer25_sd         =   1.3576969658429E-04
(PID.TID 0000.0001) %MON trcstat_ptracer25_del2       =   0.0000000000000E+00
(PID.TID 0000.0001) %MON trcstat_ptracer26_max        =   8.6691171288649E-04
(PID.TID 0000.0001) %MON trcstat_ptracer26_min        =   1.3739850072296E-35
(PID.TID 0000.0001) %MON trcstat_ptracer26_mean       =   2.5849548560042E-05
(PID.TID 0000.0001) %MON trcstat_ptracer26_sd         =   1.3552172203844E-04
(PID.TID 0000.0001) %MON trcstat_ptracer26_del2       =   0.0000000000000E+00
(PID.TID 0000.0001) %MON trcstat_ptracer27_max        =   8.6691191707159E-04
(PID.TID 0000.0001) %MON trcstat_ptracer27_min        =   1.3739850072296E-35
(PID.TID 0000.0001) %MON trcstat_ptracer27_mean       =   2.5853756695380E-05
(PID.TID 0000.0001) %MON trcstat_ptracer27_sd         =   1.3554734240880E-04
(PID.TID 0000.0001) %MON trcstat_ptracer27_del2       =   0.0000000000000E+00
(PID.TID 0000.0001) %MON trcstat_ptracer28_max        =   8.6691202623114E-04
(PID.TID 0000.0001) %MON trcstat_ptracer28_min        =   1.3739850072296E-35
(PID.TID 0000.0001) %MON trcstat_ptracer28_mean       =   2.6016465740644E-05
(PID.TID 0000.0001) %MON trcstat_ptracer28_sd         =   1.3653390763826E-04
(PID.TID 0000.0001) %MON trcstat_ptracer28_del2       =   0.0000000000000E+00
(PID.TID 0000.0001) %MON trcstat_ptracer29_max        =   8.6691171288649E-04
(PID.TID 0000.0001) %MON trcstat_ptracer29_min        =   1.3739850072296E-35
(PID.TID 0000.0001) %MON trcstat_ptracer29_mean       =   2.5849548560053E-05
(PID.TID 0000.0001) %MON trcstat_ptracer29_sd         =   1.3552172203851E-04
(PID.TID 0000.0001) %MON trcstat_ptracer29_del2       =   0.0000000000000E+00
(PID.TID 0000.0001) %MON trcstat_ptracer30_max        =   8.6691171288649E-04
(PID.TID 0000.0001) %MON trcstat_ptracer30_min        =   1.3739850072296E-35
(PID.TID 0000.0001) %MON trcstat_ptracer30_mean       =   2.5849548560042E-05
(PID.TID 0000.0001) %MON trcstat_ptracer30_sd         =   1.3552172203844E-04
(PID.TID 0000.0001) %MON trcstat_ptracer30_del2       =   0.0000000000000E+00
(PID.TID 0000.0001) %MON trcstat_ptracer31_max        =   8.6683865037497E-04
(PID.TID 0000.0001) %MON trcstat_ptracer31_min        =   1.6992725818009E-27
(PID.TID 0000.0001) %MON trcstat_ptracer31_mean       =   2.5849548560053E-05
(PID.TID 0000.0001) %MON trcstat_ptracer31_sd         =   1.3545288043716E-04
(PID.TID 0000.0001) %MON trcstat_ptracer31_del2       =   0.0000000000000E+00
(PID.TID 0000.0001) %MON trcstat_ptracer32_max        =   8.6691171288649E-04
(PID.TID 0000.0001) %MON trcstat_ptracer32_min        =   1.3739850072296E-35
(PID.TID 0000.0001) %MON trcstat_ptracer32_mean       =   2.5849548560044E-05
(PID.TID 0000.0001) %MON trcstat_ptracer32_sd         =   1.3552172203845E-04
(PID.TID 0000.0001) %MON trcstat_ptracer32_del2       =   0.0000000000000E+00
(PID.TID 0000.0001) %MON trcstat_ptracer33_max        =   8.6691177304974E-04
(PID.TID 0000.0001) %MON trcstat_ptracer33_min        =   1.3739850072296E-35
(PID.TID 0000.0001) %MON trcstat_ptracer33_mean       =   2.5970084194692E-05
(PID.TID 0000.0001) %MON trcstat_ptracer33_sd         =   1.3625154478669E-04
(PID.TID 0000.0001) %MON trcstat_ptracer33_del2       =   0.0000000000000E+00
(PID.TID 0000.0001) %MON trcstat_ptracer34_max        =   8.6683865064328E-04
(PID.TID 0000.0001) %MON trcstat_ptracer34_min        =   1.6992725818009E-27
(PID.TID 0000.0001) %MON trcstat_ptracer34_mean       =   2.5849548567555E-05
(PID.TID 0000.0001) %MON trcstat_ptracer34_sd         =   1.3545288047754E-04
(PID.TID 0000.0001) %MON trcstat_ptracer34_del2       =   0.0000000000000E+00
(PID.TID 0000.0001) %MON trcstat_ptracer35_max        =   8.6683865064328E-04
(PID.TID 0000.0001) %MON trcstat_ptracer35_min        =   1.6992725818009E-27
(PID.TID 0000.0001) %MON trcstat_ptracer35_mean       =   2.5849548567555E-05
(PID.TID 0000.0001) %MON trcstat_ptracer35_sd         =   1.3545288047754E-04
(PID.TID 0000.0001) %MON trcstat_ptracer35_del2       =   0.0000000000000E+00
(PID.TID 0000.0001) %MON trcstat_ptracer36_max        =   8.6691171288649E-04
(PID.TID 0000.0001) %MON trcstat_ptracer36_min        =   1.3739850072296E-35
(PID.TID 0000.0001) %MON trcstat_ptracer36_mean       =   2.5849548560054E-05
(PID.TID 0000.0001) %MON trcstat_ptracer36_sd         =   1.3552172203851E-04
(PID.TID 0000.0001) %MON trcstat_ptracer36_del2       =   0.0000000000000E+00
(PID.TID 0000.0001) %MON trcstat_ptracer37_max        =   8.6683965431678E-04
(PID.TID 0000.0001) %MON trcstat_ptracer37_min        =   1.6992725818009E-27
(PID.TID 0000.0001) %MON trcstat_ptracer37_mean       =   2.5902450898318E-05
(PID.TID 0000.0001) %MON trcstat_ptracer37_sd         =   1.3577010740721E-04
(PID.TID 0000.0001) %MON trcstat_ptracer37_del2       =   0.0000000000000E+00
(PID.TID 0000.0001) %MON trcstat_ptracer38_max        =   8.6683865037497E-04
(PID.TID 0000.0001) %MON trcstat_ptracer38_min        =   1.6992725818009E-27
(PID.TID 0000.0001) %MON trcstat_ptracer38_mean       =   2.5849548560055E-05
(PID.TID 0000.0001) %MON trcstat_ptracer38_sd         =   1.3545288043717E-04
(PID.TID 0000.0001) %MON trcstat_ptracer38_del2       =   0.0000000000000E+00
(PID.TID 0000.0001) %MON trcstat_ptracer39_max        =   8.6683970334403E-04
(PID.TID 0000.0001) %MON trcstat_ptracer39_min        =   1.6992725818009E-27
(PID.TID 0000.0001) %MON trcstat_ptracer39_mean       =   2.5856813537632E-05
(PID.TID 0000.0001) %MON trcstat_ptracer39_sd         =   1.3549687728931E-04
(PID.TID 0000.0001) %MON trcstat_ptracer39_del2       =   0.0000000000000E+00
(PID.TID 0000.0001) %MON trcstat_ptracer40_max        =   8.6683968932582E-04
(PID.TID 0000.0001) %MON trcstat_ptracer40_min        =   1.6992725818009E-27
(PID.TID 0000.0001) %MON trcstat_ptracer40_mean       =   2.5997093236132E-05
(PID.TID 0000.0001) %MON trcstat_ptracer40_sd         =   1.3634236581230E-04
(PID.TID 0000.0001) %MON trcstat_ptracer40_del2       =   0.0000000000000E+00
(PID.TID 0000.0001) %MON trcstat_ptracer41_max        =   8.6691171288649E-04
(PID.TID 0000.0001) %MON trcstat_ptracer41_min        =   1.3739850072296E-35
(PID.TID 0000.0001) %MON trcstat_ptracer41_mean       =   2.5849548560045E-05
(PID.TID 0000.0001) %MON trcstat_ptracer41_sd         =   1.3552172203846E-04
(PID.TID 0000.0001) %MON trcstat_ptracer41_del2       =   0.0000000000000E+00
(PID.TID 0000.0001) %MON trcstat_ptracer42_max        =   8.6683865037497E-04
(PID.TID 0000.0001) %MON trcstat_ptracer42_min        =   1.6992725818009E-27
(PID.TID 0000.0001) %MON trcstat_ptracer42_mean       =   2.5849548560051E-05
(PID.TID 0000.0001) %MON trcstat_ptracer42_sd         =   1.3545288043715E-04
(PID.TID 0000.0001) %MON trcstat_ptracer42_del2       =   0.0000000000000E+00
(PID.TID 0000.0001) %MON trcstat_ptracer43_max        =   8.6691171288649E-04
(PID.TID 0000.0001) %MON trcstat_ptracer43_min        =   1.3739850072296E-35
(PID.TID 0000.0001) %MON trcstat_ptracer43_mean       =   2.5849548560043E-05
(PID.TID 0000.0001) %MON trcstat_ptracer43_sd         =   1.3552172203844E-04
(PID.TID 0000.0001) %MON trcstat_ptracer43_del2       =   0.0000000000000E+00
(PID.TID 0000.0001) %MON trcstat_ptracer44_max        =   8.6691171288649E-04
(PID.TID 0000.0001) %MON trcstat_ptracer44_min        =   1.3739850072296E-35
(PID.TID 0000.0001) %MON trcstat_ptracer44_mean       =   2.5849548560042E-05
(PID.TID 0000.0001) %MON trcstat_ptracer44_sd         =   1.3552172203844E-04
(PID.TID 0000.0001) %MON trcstat_ptracer44_del2       =   0.0000000000000E+00
(PID.TID 0000.0001) %MON trcstat_ptracer45_max        =   8.6691171288649E-04
(PID.TID 0000.0001) %MON trcstat_ptracer45_min        =   1.3739850072296E-35
(PID.TID 0000.0001) %MON trcstat_ptracer45_mean       =   2.5849548560044E-05
(PID.TID 0000.0001) %MON trcstat_ptracer45_sd         =   1.3552172203845E-04
(PID.TID 0000.0001) %MON trcstat_ptracer45_del2       =   0.0000000000000E+00
(PID.TID 0000.0001) %MON trcstat_ptracer46_max        =   8.6691171288649E-04
(PID.TID 0000.0001) %MON trcstat_ptracer46_min        =   1.3739850072296E-35
(PID.TID 0000.0001) %MON trcstat_ptracer46_mean       =   2.5849548560044E-05
(PID.TID 0000.0001) %MON trcstat_ptracer46_sd         =   1.3552172203845E-04
(PID.TID 0000.0001) %MON trcstat_ptracer46_del2       =   0.0000000000000E+00
(PID.TID 0000.0001) %MON trcstat_ptracer47_max        =   8.6683975328419E-04
(PID.TID 0000.0001) %MON trcstat_ptracer47_min        =   1.6992725818009E-27
(PID.TID 0000.0001) %MON trcstat_ptracer47_mean       =   2.5996578003009E-05
(PID.TID 0000.0001) %MON trcstat_ptracer47_sd         =   1.3633919668951E-04
(PID.TID 0000.0001) %MON trcstat_ptracer47_del2       =   0.0000000000000E+00
(PID.TID 0000.0001) %MON trcstat_ptracer48_max        =   8.6691171288649E-04
(PID.TID 0000.0001) %MON trcstat_ptracer48_min        =   1.3739850072296E-35
(PID.TID 0000.0001) %MON trcstat_ptracer48_mean       =   2.5849548560056E-05
(PID.TID 0000.0001) %MON trcstat_ptracer48_sd         =   1.3552172203852E-04
(PID.TID 0000.0001) %MON trcstat_ptracer48_del2       =   0.0000000000000E+00
(PID.TID 0000.0001) %MON trcstat_ptracer49_max        =   8.6683967208333E-04
(PID.TID 0000.0001) %MON trcstat_ptracer49_min        =   1.6992725818009E-27
(PID.TID 0000.0001) %MON trcstat_ptracer49_mean       =   2.6000198978848E-05
(PID.TID 0000.0001) %MON trcstat_ptracer49_sd         =   1.3636136576766E-04
(PID.TID 0000.0001) %MON trcstat_ptracer49_del2       =   0.0000000000000E+00
(PID.TID 0000.0001) %MON trcstat_ptracer50_max        =   8.6691177096757E-04
(PID.TID 0000.0001) %MON trcstat_ptracer50_min        =   1.3739850072296E-35
(PID.TID 0000.0001) %MON trcstat_ptracer50_mean       =   2.5956956582468E-05
(PID.TID 0000.0001) %MON trcstat_ptracer50_sd         =   1.3617092242655E-04
(PID.TID 0000.0001) %MON trcstat_ptracer50_del2       =   0.0000000000000E+00
(PID.TID 0000.0001) %MON trcstat_ptracer51_max        =   8.6683961156528E-04
(PID.TID 0000.0001) %MON trcstat_ptracer51_min        =   1.6992725818009E-27
(PID.TID 0000.0001) %MON trcstat_ptracer51_mean       =   2.5914403413279E-05
(PID.TID 0000.0001) %MON trcstat_ptracer51_sd         =   1.3584184770837E-04
(PID.TID 0000.0001) %MON trcstat_ptracer51_del2       =   0.0000000000000E+00
(PID.TID 0000.0001) %MON trcstat_ptracer52_max        =   8.6691201836341E-04
(PID.TID 0000.0001) %MON trcstat_ptracer52_min        =   1.3739850072296E-35
(PID.TID 0000.0001) %MON trcstat_ptracer52_mean       =   2.5990325362465E-05
(PID.TID 0000.0001) %MON trcstat_ptracer52_sd         =   1.3637368556483E-04
(PID.TID 0000.0001) %MON trcstat_ptracer52_del2       =   0.0000000000000E+00
(PID.TID 0000.0001) %MON trcstat_ptracer53_max        =   8.6691171288649E-04
(PID.TID 0000.0001) %MON trcstat_ptracer53_min        =   1.3739850072296E-35
(PID.TID 0000.0001) %MON trcstat_ptracer53_mean       =   2.5849548560049E-05
(PID.TID 0000.0001) %MON trcstat_ptracer53_sd         =   1.3552172203848E-04
(PID.TID 0000.0001) %MON trcstat_ptracer53_del2       =   0.0000000000000E+00
(PID.TID 0000.0001) %MON trcstat_ptracer54_max        =   8.6683865064328E-04
(PID.TID 0000.0001) %MON trcstat_ptracer54_min        =   1.6992725818009E-27
(PID.TID 0000.0001) %MON trcstat_ptracer54_mean       =   2.5849548567549E-05
(PID.TID 0000.0001) %MON trcstat_ptracer54_sd         =   1.3545288047751E-04
(PID.TID 0000.0001) %MON trcstat_ptracer54_del2       =   0.0000000000000E+00
(PID.TID 0000.0001) %MON trcstat_ptracer55_max        =   8.6691171288649E-04
(PID.TID 0000.0001) %MON trcstat_ptracer55_min        =   1.3739850072296E-35
(PID.TID 0000.0001) %MON trcstat_ptracer55_mean       =   2.5849548560048E-05
(PID.TID 0000.0001) %MON trcstat_ptracer55_sd         =   1.3552172203848E-04
(PID.TID 0000.0001) %MON trcstat_ptracer55_del2       =   0.0000000000000E+00
(PID.TID 0000.0001) %MON trcstat_ptracer56_max        =   8.6691171288649E-04
(PID.TID 0000.0001) %MON trcstat_ptracer56_min        =   1.3739850072296E-35
(PID.TID 0000.0001) %MON trcstat_ptracer56_mean       =   2.5849548560056E-05
(PID.TID 0000.0001) %MON trcstat_ptracer56_sd         =   1.3552172203853E-04
(PID.TID 0000.0001) %MON trcstat_ptracer56_del2       =   0.0000000000000E+00
(PID.TID 0000.0001) %MON trcstat_ptracer57_max        =   8.6691171288649E-04
(PID.TID 0000.0001) %MON trcstat_ptracer57_min        =   1.3739850072296E-35
(PID.TID 0000.0001) %MON trcstat_ptracer57_mean       =   2.5849548560052E-05
(PID.TID 0000.0001) %MON trcstat_ptracer57_sd         =   1.3552172203850E-04
(PID.TID 0000.0001) %MON trcstat_ptracer57_del2       =   0.0000000000000E+00
(PID.TID 0000.0001) %MON trcstat_ptracer58_max        =   8.6683865064328E-04
(PID.TID 0000.0001) %MON trcstat_ptracer58_min        =   1.6992725818009E-27
(PID.TID 0000.0001) %MON trcstat_ptracer58_mean       =   2.5849548567555E-05
(PID.TID 0000.0001) %MON trcstat_ptracer58_sd         =   1.3545288047754E-04
(PID.TID 0000.0001) %MON trcstat_ptracer58_del2       =   0.0000000000000E+00
(PID.TID 0000.0001) %MON trcstat_ptracer59_max        =   8.6691171288649E-04
(PID.TID 0000.0001) %MON trcstat_ptracer59_min        =   1.3739850072296E-35
(PID.TID 0000.0001) %MON trcstat_ptracer59_mean       =   2.5849548560046E-05
(PID.TID 0000.0001) %MON trcstat_ptracer59_sd         =   1.3552172203847E-04
(PID.TID 0000.0001) %MON trcstat_ptracer59_del2       =   0.0000000000000E+00
(PID.TID 0000.0001) %MON trcstat_ptracer60_max        =   8.6683865037497E-04
(PID.TID 0000.0001) %MON trcstat_ptracer60_min        =   1.6992725818009E-27
(PID.TID 0000.0001) %MON trcstat_ptracer60_mean       =   2.5849548560054E-05
(PID.TID 0000.0001) %MON trcstat_ptracer60_sd         =   1.3545288043717E-04
(PID.TID 0000.0001) %MON trcstat_ptracer60_del2       =   0.0000000000000E+00
(PID.TID 0000.0001) %MON trcstat_ptracer61_max        =   8.6691171288649E-04
(PID.TID 0000.0001) %MON trcstat_ptracer61_min        =   1.3739850072296E-35
(PID.TID 0000.0001) %MON trcstat_ptracer61_mean       =   2.5849548560056E-05
(PID.TID 0000.0001) %MON trcstat_ptracer61_sd         =   1.3552172203853E-04
(PID.TID 0000.0001) %MON trcstat_ptracer61_del2       =   0.0000000000000E+00
(PID.TID 0000.0001) %MON trcstat_ptracer62_max        =   8.6683865037497E-04
(PID.TID 0000.0001) %MON trcstat_ptracer62_min        =   1.6992725818009E-27
(PID.TID 0000.0001) %MON trcstat_ptracer62_mean       =   2.5849548560051E-05
(PID.TID 0000.0001) %MON trcstat_ptracer62_sd         =   1.3545288043715E-04
(PID.TID 0000.0001) %MON trcstat_ptracer62_del2       =   0.0000000000000E+00
(PID.TID 0000.0001) %MON trcstat_ptracer63_max        =   8.6691175385252E-04
(PID.TID 0000.0001) %MON trcstat_ptracer63_min        =   1.3739850072296E-35
(PID.TID 0000.0001) %MON trcstat_ptracer63_mean       =   2.5911584935176E-05
(PID.TID 0000.0001) %MON trcstat_ptracer63_sd         =   1.3589473362805E-04
(PID.TID 0000.0001) %MON trcstat_ptracer63_del2       =   0.0000000000000E+00
(PID.TID 0000.0001) %MON trcstat_ptracer64_max        =   8.6683948536959E-04
(PID.TID 0000.0001) %MON trcstat_ptracer64_min        =   1.6992725818009E-27
(PID.TID 0000.0001) %MON trcstat_ptracer64_mean       =   2.5992101160471E-05
(PID.TID 0000.0001) %MON trcstat_ptracer64_sd         =   1.3631200747517E-04
(PID.TID 0000.0001) %MON trcstat_ptracer64_del2       =   0.0000000000000E+00
(PID.TID 0000.0001) %MON trcstat_ptracer65_max        =   8.6683865037497E-04
(PID.TID 0000.0001) %MON trcstat_ptracer65_min        =   1.6992725818009E-27
(PID.TID 0000.0001) %MON trcstat_ptracer65_mean       =   2.5849548560056E-05
(PID.TID 0000.0001) %MON trcstat_ptracer65_sd         =   1.3545288043718E-04
(PID.TID 0000.0001) %MON trcstat_ptracer65_del2       =   0.0000000000000E+00
(PID.TID 0000.0001) %MON trcstat_ptracer66_max        =   8.6683865037497E-04
(PID.TID 0000.0001) %MON trcstat_ptracer66_min        =   1.6992725818009E-27
(PID.TID 0000.0001) %MON trcstat_ptracer66_mean       =   2.5849548560055E-05
(PID.TID 0000.0001) %MON trcstat_ptracer66_sd         =   1.3545288043717E-04
(PID.TID 0000.0001) %MON trcstat_ptracer66_del2       =   0.0000000000000E+00
(PID.TID 0000.0001) %MON trcstat_ptracer67_max        =   8.6683865037497E-04
(PID.TID 0000.0001) %MON trcstat_ptracer67_min        =   1.6992725818009E-27
(PID.TID 0000.0001) %MON trcstat_ptracer67_mean       =   2.5849548560053E-05
(PID.TID 0000.0001) %MON trcstat_ptracer67_sd         =   1.3545288043716E-04
(PID.TID 0000.0001) %MON trcstat_ptracer67_del2       =   0.0000000000000E+00
(PID.TID 0000.0001) %MON trcstat_ptracer68_max        =   8.6691180203029E-04
(PID.TID 0000.0001) %MON trcstat_ptracer68_min        =   1.3739850072296E-35
(PID.TID 0000.0001) %MON trcstat_ptracer68_mean       =   2.5915364090165E-05
(PID.TID 0000.0001) %MON trcstat_ptracer68_sd         =   1.3591778951823E-04
(PID.TID 0000.0001) %MON trcstat_ptracer68_del2       =   0.0000000000000E+00
(PID.TID 0000.0001) %MON trcstat_ptracer69_max        =   8.6691171288649E-04
(PID.TID 0000.0001) %MON trcstat_ptracer69_min        =   1.3739850072296E-35
(PID.TID 0000.0001) %MON trcstat_ptracer69_mean       =   2.5849548560058E-05
(PID.TID 0000.0001) %MON trcstat_ptracer69_sd         =   1.3552172203854E-04
(PID.TID 0000.0001) %MON trcstat_ptracer69_del2       =   0.0000000000000E+00
(PID.TID 0000.0001) %MON trcstat_ptracer70_max        =   8.6683865064328E-04
(PID.TID 0000.0001) %MON trcstat_ptracer70_min        =   1.6992725818009E-27
(PID.TID 0000.0001) %MON trcstat_ptracer70_mean       =   2.5849548567554E-05
(PID.TID 0000.0001) %MON trcstat_ptracer70_sd         =   1.3545288047754E-04
(PID.TID 0000.0001) %MON trcstat_ptracer70_del2       =   0.0000000000000E+00
(PID.TID 0000.0001) %MON trcstat_ptracer71_max        =   8.6683865064328E-04
(PID.TID 0000.0001) %MON trcstat_ptracer71_min        =   1.6992725818009E-27
(PID.TID 0000.0001) %MON trcstat_ptracer71_mean       =   2.5849548567552E-05
(PID.TID 0000.0001) %MON trcstat_ptracer71_sd         =   1.3545288047753E-04
(PID.TID 0000.0001) %MON trcstat_ptracer71_del2       =   0.0000000000000E+00
(PID.TID 0000.0001) %MON trcstat_ptracer72_max        =   8.6683865037497E-04
(PID.TID 0000.0001) %MON trcstat_ptracer72_min        =   1.6992725818009E-27
(PID.TID 0000.0001) %MON trcstat_ptracer72_mean       =   2.5849548560051E-05
(PID.TID 0000.0001) %MON trcstat_ptracer72_sd         =   1.3545288043715E-04
(PID.TID 0000.0001) %MON trcstat_ptracer72_del2       =   0.0000000000000E+00
(PID.TID 0000.0001) %MON trcstat_ptracer73_max        =   8.6683958034554E-04
(PID.TID 0000.0001) %MON trcstat_ptracer73_min        =   1.6992725818009E-27
(PID.TID 0000.0001) %MON trcstat_ptracer73_mean       =   2.5994732304537E-05
(PID.TID 0000.0001) %MON trcstat_ptracer73_sd         =   1.3632800381633E-04
(PID.TID 0000.0001) %MON trcstat_ptracer73_del2       =   0.0000000000000E+00
(PID.TID 0000.0001) %MON trcstat_ptracer74_max        =   8.6683865064328E-04
(PID.TID 0000.0001) %MON trcstat_ptracer74_min        =   1.6992725818009E-27
(PID.TID 0000.0001) %MON trcstat_ptracer74_mean       =   2.5849548567555E-05
(PID.TID 0000.0001) %MON trcstat_ptracer74_sd         =   1.3545288047754E-04
(PID.TID 0000.0001) %MON trcstat_ptracer74_del2       =   0.0000000000000E+00
(PID.TID 0000.0001) %MON trcstat_ptracer75_max        =   8.6683974576446E-04
(PID.TID 0000.0001) %MON trcstat_ptracer75_min        =   1.6992725818009E-27
(PID.TID 0000.0001) %MON trcstat_ptracer75_mean       =   2.6008124049708E-05
(PID.TID 0000.0001) %MON trcstat_ptracer75_sd         =   1.3640981881859E-04
(PID.TID 0000.0001) %MON trcstat_ptracer75_del2       =   0.0000000000000E+00
(PID.TID 0000.0001) %MON trcstat_ptracer76_max        =   8.6683974129098E-04
(PID.TID 0000.0001) %MON trcstat_ptracer76_min        =   1.6992725818009E-27
(PID.TID 0000.0001) %MON trcstat_ptracer76_mean       =   2.5889544347809E-05
(PID.TID 0000.0001) %MON trcstat_ptracer76_sd         =   1.3569284418116E-04
(PID.TID 0000.0001) %MON trcstat_ptracer76_del2       =   0.0000000000000E+00
(PID.TID 0000.0001) %MON trcstat_ptracer77_max        =   8.6683865037497E-04
(PID.TID 0000.0001) %MON trcstat_ptracer77_min        =   1.6992725818009E-27
(PID.TID 0000.0001) %MON trcstat_ptracer77_mean       =   2.5849548560057E-05
(PID.TID 0000.0001) %MON trcstat_ptracer77_sd         =   1.3545288043719E-04
(PID.TID 0000.0001) %MON trcstat_ptracer77_del2       =   0.0000000000000E+00
(PID.TID 0000.0001) %MON trcstat_ptracer78_max        =   8.6683962508586E-04
(PID.TID 0000.0001) %MON trcstat_ptracer78_min        =   1.6992725818009E-27
(PID.TID 0000.0001) %MON trcstat_ptracer78_mean       =   2.5863746661262E-05
(PID.TID 0000.0001) %MON trcstat_ptracer78_sd         =   1.3553833290490E-04
(PID.TID 0000.0001) %MON trcstat_ptracer78_del2       =   0.0000000000000E+00
(PID.TID 0000.0001) %MON trcstat_ptracer79_max        =   8.6683865037497E-04
(PID.TID 0000.0001) %MON trcstat_ptracer79_min        =   1.6992725818009E-27
(PID.TID 0000.0001) %MON trcstat_ptracer79_mean       =   2.5849548560054E-05
(PID.TID 0000.0001) %MON trcstat_ptracer79_sd         =   1.3545288043717E-04
(PID.TID 0000.0001) %MON trcstat_ptracer79_del2       =   0.0000000000000E+00
(PID.TID 0000.0001) %MON trcstat_ptracer80_max        =   8.6683865037497E-04
(PID.TID 0000.0001) %MON trcstat_ptracer80_min        =   1.6992725818009E-27
(PID.TID 0000.0001) %MON trcstat_ptracer80_mean       =   2.5849548560051E-05
(PID.TID 0000.0001) %MON trcstat_ptracer80_sd         =   1.3545288043715E-04
(PID.TID 0000.0001) %MON trcstat_ptracer80_del2       =   0.0000000000000E+00
(PID.TID 0000.0001) %MON trcstat_ptracer81_max        =   8.6683980833086E-04
(PID.TID 0000.0001) %MON trcstat_ptracer81_min        =   1.6992725818009E-27
(PID.TID 0000.0001) %MON trcstat_ptracer81_mean       =   2.5935146766845E-05
(PID.TID 0000.0001) %MON trcstat_ptracer81_sd         =   1.3596688643982E-04
(PID.TID 0000.0001) %MON trcstat_ptracer81_del2       =   0.0000000000000E+00
(PID.TID 0000.0001) %MON trcstat_ptracer82_max        =   8.6691171288649E-04
(PID.TID 0000.0001) %MON trcstat_ptracer82_min        =   1.3739850072296E-35
(PID.TID 0000.0001) %MON trcstat_ptracer82_mean       =   2.5849548560046E-05
(PID.TID 0000.0001) %MON trcstat_ptracer82_sd         =   1.3552172203846E-04
(PID.TID 0000.0001) %MON trcstat_ptracer82_del2       =   0.0000000000000E+00
(PID.TID 0000.0001) %MON trcstat_ptracer83_max        =   8.6683865064328E-04
(PID.TID 0000.0001) %MON trcstat_ptracer83_min        =   1.6992725818009E-27
(PID.TID 0000.0001) %MON trcstat_ptracer83_mean       =   2.5849548567550E-05
(PID.TID 0000.0001) %MON trcstat_ptracer83_sd         =   1.3545288047751E-04
(PID.TID 0000.0001) %MON trcstat_ptracer83_del2       =   0.0000000000000E+00
(PID.TID 0000.0001) %MON trcstat_ptracer84_max        =   8.6691171288649E-04
(PID.TID 0000.0001) %MON trcstat_ptracer84_min        =   1.3739850072296E-35
(PID.TID 0000.0001) %MON trcstat_ptracer84_mean       =   2.5849548560043E-05
(PID.TID 0000.0001) %MON trcstat_ptracer84_sd         =   1.3552172203844E-04
(PID.TID 0000.0001) %MON trcstat_ptracer84_del2       =   0.0000000000000E+00
(PID.TID 0000.0001) %MON trcstat_ptracer85_max        =   8.6683865037497E-04
(PID.TID 0000.0001) %MON trcstat_ptracer85_min        =   1.6992725818009E-27
(PID.TID 0000.0001) %MON trcstat_ptracer85_mean       =   2.5849548560053E-05
(PID.TID 0000.0001) %MON trcstat_ptracer85_sd         =   1.3545288043716E-04
(PID.TID 0000.0001) %MON trcstat_ptracer85_del2       =   0.0000000000000E+00
(PID.TID 0000.0001) %MON trcstat_ptracer86_max        =   8.6683977068783E-04
(PID.TID 0000.0001) %MON trcstat_ptracer86_min        =   1.6992725818009E-27
(PID.TID 0000.0001) %MON trcstat_ptracer86_mean       =   2.5872830132825E-05
(PID.TID 0000.0001) %MON trcstat_ptracer86_sd         =   1.3559281353481E-04
(PID.TID 0000.0001) %MON trcstat_ptracer86_del2       =   0.0000000000000E+00
(PID.TID 0000.0001) %MON trcstat_ptracer87_max        =   8.6691181948059E-04
(PID.TID 0000.0001) %MON trcstat_ptracer87_min        =   1.3739850072296E-35
(PID.TID 0000.0001) %MON trcstat_ptracer87_mean       =   2.5964357213831E-05
(PID.TID 0000.0001) %MON trcstat_ptracer87_sd         =   1.3621548919099E-04
(PID.TID 0000.0001) %MON trcstat_ptracer87_del2       =   0.0000000000000E+00
(PID.TID 0000.0001) %MON trcstat_ptracer88_max        =   8.6691171288649E-04
(PID.TID 0000.0001) %MON trcstat_ptracer88_min        =   1.3739850072296E-35
(PID.TID 0000.0001) %MON trcstat_ptracer88_mean       =   2.5849548560046E-05
(PID.TID 0000.0001) %MON trcstat_ptracer88_sd         =   1.3552172203846E-04
(PID.TID 0000.0001) %MON trcstat_ptracer88_del2       =   0.0000000000000E+00
(PID.TID 0000.0001) %MON trcstat_ptracer89_max        =   8.6691171288649E-04
(PID.TID 0000.0001) %MON trcstat_ptracer89_min        =   1.3739850072296E-35
(PID.TID 0000.0001) %MON trcstat_ptracer89_mean       =   2.5849548560044E-05
(PID.TID 0000.0001) %MON trcstat_ptracer89_sd         =   1.3552172203845E-04
(PID.TID 0000.0001) %MON trcstat_ptracer89_del2       =   0.0000000000000E+00
(PID.TID 0000.0001) %MON trcstat_ptracer90_max        =   8.6683865064328E-04
(PID.TID 0000.0001) %MON trcstat_ptracer90_min        =   1.6992725818009E-27
(PID.TID 0000.0001) %MON trcstat_ptracer90_mean       =   2.5849548567555E-05
(PID.TID 0000.0001) %MON trcstat_ptracer90_sd         =   1.3545288047754E-04
(PID.TID 0000.0001) %MON trcstat_ptracer90_del2       =   0.0000000000000E+00
(PID.TID 0000.0001) %MON trcstat_ptracer91_max        =   8.6691171288649E-04
(PID.TID 0000.0001) %MON trcstat_ptracer91_min        =   1.3739850072296E-35
(PID.TID 0000.0001) %MON trcstat_ptracer91_mean       =   2.5849548560045E-05
(PID.TID 0000.0001) %MON trcstat_ptracer91_sd         =   1.3552172203846E-04
(PID.TID 0000.0001) %MON trcstat_ptracer91_del2       =   0.0000000000000E+00
(PID.TID 0000.0001) %MON trcstat_ptracer92_max        =   8.6683963424093E-04
(PID.TID 0000.0001) %MON trcstat_ptracer92_min        =   1.6992725818009E-27
(PID.TID 0000.0001) %MON trcstat_ptracer92_mean       =   2.5863745349393E-05
(PID.TID 0000.0001) %MON trcstat_ptracer92_sd         =   1.3553836289241E-04
(PID.TID 0000.0001) %MON trcstat_ptracer92_del2       =   0.0000000000000E+00
(PID.TID 0000.0001) %MON trcstat_ptracer93_max        =   8.6683865064328E-04
(PID.TID 0000.0001) %MON trcstat_ptracer93_min        =   1.6992725818009E-27
(PID.TID 0000.0001) %MON trcstat_ptracer93_mean       =   2.5849548567550E-05
(PID.TID 0000.0001) %MON trcstat_ptracer93_sd         =   1.3545288047751E-04
(PID.TID 0000.0001) %MON trcstat_ptracer93_del2       =   0.0000000000000E+00
(PID.TID 0000.0001) %MON trcstat_ptracer94_max        =   8.6683954351067E-04
(PID.TID 0000.0001) %MON trcstat_ptracer94_min        =   1.6992725818009E-27
(PID.TID 0000.0001) %MON trcstat_ptracer94_mean       =   2.5987756854664E-05
(PID.TID 0000.0001) %MON trcstat_ptracer94_sd         =   1.3628542280888E-04
(PID.TID 0000.0001) %MON trcstat_ptracer94_del2       =   0.0000000000000E+00
(PID.TID 0000.0001) %MON trcstat_ptracer95_max        =   8.6683865037497E-04
(PID.TID 0000.0001) %MON trcstat_ptracer95_min        =   1.6992725818009E-27
(PID.TID 0000.0001) %MON trcstat_ptracer95_mean       =   2.5849548560050E-05
(PID.TID 0000.0001) %MON trcstat_ptracer95_sd         =   1.3545288043714E-04
(PID.TID 0000.0001) %MON trcstat_ptracer95_del2       =   0.0000000000000E+00
(PID.TID 0000.0001) %MON trcstat_ptracer96_max        =   8.6691176200614E-04
(PID.TID 0000.0001) %MON trcstat_ptracer96_min        =   1.3739850072296E-35
(PID.TID 0000.0001) %MON trcstat_ptracer96_mean       =   2.5928695715269E-05
(PID.TID 0000.0001) %MON trcstat_ptracer96_sd         =   1.3599857289874E-04
(PID.TID 0000.0001) %MON trcstat_ptracer96_del2       =   0.0000000000000E+00
(PID.TID 0000.0001) %MON trcstat_ptracer97_max        =   1.2365300958170E-07
(PID.TID 0000.0001) %MON trcstat_ptracer97_min        =   9.6539308657082E-34
(PID.TID 0000.0001) %MON trcstat_ptracer97_mean       =   1.6351650406206E-08
(PID.TID 0000.0001) %MON trcstat_ptracer97_sd         =   2.9908440382640E-08
(PID.TID 0000.0001) %MON trcstat_ptracer97_del2       =   0.0000000000000E+00
(PID.TID 0000.0001) %MON trcstat_ptracer98_max        =   1.2365576255221E-07
(PID.TID 0000.0001) %MON trcstat_ptracer98_min        =   9.6539308657109E-34
(PID.TID 0000.0001) %MON trcstat_ptracer98_mean       =   1.6351728615327E-08
(PID.TID 0000.0001) %MON trcstat_ptracer98_sd         =   2.9908702583037E-08
(PID.TID 0000.0001) %MON trcstat_ptracer98_del2       =   0.0000000000000E+00
(PID.TID 0000.0001) // =======================================================
(PID.TID 0000.0001) // End MONITOR ptracers field statistics
(PID.TID 0000.0001) // =======================================================
 Computing Diagnostic #    144  TRAC01       Counter:       1   Parms: SMR     MR      
 Computing Diagnostic #    157  TRAC02       Counter:       1   Parms: SMR     MR      
 Computing Diagnostic #    170  TRAC03       Counter:       1   Parms: SMR     MR      
 Computing Diagnostic #    183  TRAC04       Counter:       1   Parms: SMR     MR      
 Computing Diagnostic #    196  TRAC05       Counter:       1   Parms: SMR     MR      
 Computing Diagnostic #    209  TRAC06       Counter:       1   Parms: SMR     MR      
 Computing Diagnostic #    222  TRAC07       Counter:       1   Parms: SMR     MR      
 Computing Diagnostic #    235  TRAC08       Counter:       1   Parms: SMR     MR      
 Computing Diagnostic #    248  TRAC09       Counter:       1   Parms: SMR     MR      
 Computing Diagnostic #    261  TRAC10       Counter:       1   Parms: SMR     MR      
 Computing Diagnostic #    274  TRAC11       Counter:       1   Parms: SMR     MR      
 Computing Diagnostic #    287  TRAC12       Counter:       1   Parms: SMR     MR      
 Computing Diagnostic #    300  TRAC13       Counter:       1   Parms: SMR     MR      
 Computing Diagnostic #    313  TRAC14       Counter:       1   Parms: SMR     MR      
 Computing Diagnostic #    326  TRAC15       Counter:       1   Parms: SMR     MR      
 Computing Diagnostic #    339  TRAC16       Counter:       1   Parms: SMR     MR      
 Computing Diagnostic #    352  TRAC17       Counter:       1   Parms: SMR     MR      
 Computing Diagnostic #    365  TRAC18       Counter:       1   Parms: SMR     MR      
 Computing Diagnostic #    378  TRAC19       Counter:       1   Parms: SMR     MR      
 Computing Diagnostic #    391  TRAC20       Counter:       1   Parms: SMR     MR      
 Computing Diagnostic #    404  TRAC21       Counter:       1   Parms: SMR     MR      
 Computing Diagnostic #    417  TRAC22       Counter:       1   Parms: SMR     MR      
 Computing Diagnostic #    430  TRAC23       Counter:       1   Parms: SMR     MR      
 Computing Diagnostic #    443  TRAC24       Counter:       1   Parms: SMR     MR      
 Computing Diagnostic #    456  TRAC25       Counter:       1   Parms: SMR     MR      
 Computing Diagnostic #    469  TRAC26       Counter:       1   Parms: SMR     MR      
 Computing Diagnostic #    482  TRAC27       Counter:       1   Parms: SMR     MR      
 Computing Diagnostic #    495  TRAC28       Counter:       1   Parms: SMR     MR      
 Computing Diagnostic #    508  TRAC29       Counter:       1   Parms: SMR     MR      
 Computing Diagnostic #    521  TRAC30       Counter:       1   Parms: SMR     MR      
 Computing Diagnostic #    534  TRAC31       Counter:       1   Parms: SMR     MR      
 Computing Diagnostic #    547  TRAC32       Counter:       1   Parms: SMR     MR      
 Computing Diagnostic #    560  TRAC33       Counter:       1   Parms: SMR     MR      
 Computing Diagnostic #    573  TRAC34       Counter:       1   Parms: SMR     MR      
 Computing Diagnostic #    586  TRAC35       Counter:       1   Parms: SMR     MR      
 Computing Diagnostic #    599  TRAC36       Counter:       1   Parms: SMR     MR      
 Computing Diagnostic #    612  TRAC37       Counter:       1   Parms: SMR     MR      
 Computing Diagnostic #    625  TRAC38       Counter:       1   Parms: SMR     MR      
 Computing Diagnostic #    638  TRAC39       Counter:       1   Parms: SMR     MR      
 Computing Diagnostic #    651  TRAC40       Counter:       1   Parms: SMR     MR      
 Computing Diagnostic #    664  TRAC41       Counter:       1   Parms: SMR     MR      
 Computing Diagnostic #    677  TRAC42       Counter:       1   Parms: SMR     MR      
 Computing Diagnostic #    690  TRAC43       Counter:       1   Parms: SMR     MR      
 Computing Diagnostic #    703  TRAC44       Counter:       1   Parms: SMR     MR      
 Computing Diagnostic #    716  TRAC45       Counter:       1   Parms: SMR     MR      
 Computing Diagnostic #    729  TRAC46       Counter:       1   Parms: SMR     MR      
 Computing Diagnostic #    742  TRAC47       Counter:       1   Parms: SMR     MR      
 Computing Diagnostic #    755  TRAC48       Counter:       1   Parms: SMR     MR      
 Computing Diagnostic #    768  TRAC49       Counter:       1   Parms: SMR     MR      
 Computing Diagnostic #    781  TRAC50       Counter:       1   Parms: SMR     MR      
 Computing Diagnostic #    794  TRAC51       Counter:       1   Parms: SMR     MR      
 Computing Diagnostic #    807  TRAC52       Counter:       1   Parms: SMR     MR      
 Computing Diagnostic #    820  TRAC53       Counter:       1   Parms: SMR     MR      
 Computing Diagnostic #    833  TRAC54       Counter:       1   Parms: SMR     MR      
 Computing Diagnostic #    846  TRAC55       Counter:       1   Parms: SMR     MR      
 Computing Diagnostic #    859  TRAC56       Counter:       1   Parms: SMR     MR      
 Computing Diagnostic #    872  TRAC57       Counter:       1   Parms: SMR     MR      
 Computing Diagnostic #    885  TRAC58       Counter:       1   Parms: SMR     MR      
 Computing Diagnostic #    898  TRAC59       Counter:       1   Parms: SMR     MR      
 Computing Diagnostic #    911  TRAC60       Counter:       1   Parms: SMR     MR      
 Computing Diagnostic #    924  TRAC61       Counter:       1   Parms: SMR     MR      
 Computing Diagnostic #    937  TRAC62       Counter:       1   Parms: SMR     MR      
 Computing Diagnostic #    950  TRAC63       Counter:       1   Parms: SMR     MR      
 Computing Diagnostic #    963  TRAC64       Counter:       1   Parms: SMR     MR      
 Computing Diagnostic #    976  TRAC65       Counter:       1   Parms: SMR     MR      
 Computing Diagnostic #    989  TRAC66       Counter:       1   Parms: SMR     MR      
 Computing Diagnostic #   1002  TRAC67       Counter:       1   Parms: SMR     MR      
 Computing Diagnostic #   1015  TRAC68       Counter:       1   Parms: SMR     MR      
 Computing Diagnostic #   1028  TRAC69       Counter:       1   Parms: SMR     MR      
 Computing Diagnostic #   1041  TRAC70       Counter:       1   Parms: SMR     MR      
 Computing Diagnostic #   1054  TRAC71       Counter:       1   Parms: SMR     MR      
 Computing Diagnostic #   1067  TRAC72       Counter:       1   Parms: SMR     MR      
 Computing Diagnostic #   1080  TRAC73       Counter:       1   Parms: SMR     MR      
 Computing Diagnostic #   1093  TRAC74       Counter:       1   Parms: SMR     MR      
 Computing Diagnostic #   1106  TRAC75       Counter:       1   Parms: SMR     MR      
 Computing Diagnostic #   1119  TRAC76       Counter:       1   Parms: SMR     MR      
 Computing Diagnostic #   1132  TRAC77       Counter:       1   Parms: SMR     MR      
 Computing Diagnostic #   1145  TRAC78       Counter:       1   Parms: SMR     MR      
 Computing Diagnostic #   1158  TRAC79       Counter:       1   Parms: SMR     MR      
 Computing Diagnostic #   1171  TRAC80       Counter:       1   Parms: SMR     MR      
 Computing Diagnostic #   1184  TRAC81       Counter:       1   Parms: SMR     MR      
 Computing Diagnostic #   1197  TRAC82       Counter:       1   Parms: SMR     MR      
 Computing Diagnostic #   1210  TRAC83       Counter:       1   Parms: SMR     MR      
 Computing Diagnostic #   1223  TRAC84       Counter:       1   Parms: SMR     MR      
 Computing Diagnostic #   1236  TRAC85       Counter:       1   Parms: SMR     MR      
 Computing Diagnostic #   1249  TRAC86       Counter:       1   Parms: SMR     MR      
 Computing Diagnostic #   1262  TRAC87       Counter:       1   Parms: SMR     MR      
 Computing Diagnostic #   1275  TRAC88       Counter:       1   Parms: SMR     MR      
 Computing Diagnostic #   1288  TRAC89       Counter:       1   Parms: SMR     MR      
 Computing Diagnostic #   1301  TRAC90       Counter:       1   Parms: SMR     MR      
 Computing Diagnostic #   1314  TRAC91       Counter:       1   Parms: SMR     MR      
 Computing Diagnostic #   1327  TRAC92       Counter:       1   Parms: SMR     MR      
 Computing Diagnostic #   1340  TRAC93       Counter:       1   Parms: SMR     MR      
 Computing Diagnostic #   1353  TRAC94       Counter:       1   Parms: SMR     MR      
 Computing Diagnostic #   1366  TRAC95       Counter:       1   Parms: SMR     MR      
 Computing Diagnostic #   1379  TRAC96       Counter:       1   Parms: SMR     MR      
 Computing Diagnostic #   1392  TRAC97       Counter:       1   Parms: SMR     MR      
 Computing Diagnostic #   1405  TRAC98       Counter:       1   Parms: SMR     MR      
 prec          78          64
(PID.TID 0000.0001) %CHECKPOINT         4 ckptA
(PID.TID 0000.0001)   Seconds in section "ALL                    [THE_MODEL_MAIN]":
(PID.TID 0000.0001)           User time:   1.8067249944433570
(PID.TID 0000.0001)         System time:   7.6988003216683865E-002
(PID.TID 0000.0001)     Wall clock time:   1.9667670726776123
(PID.TID 0000.0001)          No. starts:           1
(PID.TID 0000.0001)           No. stops:           1
(PID.TID 0000.0001)   Seconds in section "INITIALISE_FIXED       [THE_MODEL_MAIN]":
(PID.TID 0000.0001)           User time:  0.69189402367919683
(PID.TID 0000.0001)         System time:   1.9996999762952328E-002
(PID.TID 0000.0001)     Wall clock time:  0.72711682319641113
(PID.TID 0000.0001)          No. starts:           1
(PID.TID 0000.0001)           No. stops:           1
(PID.TID 0000.0001)   Seconds in section "THE_MAIN_LOOP          [THE_MODEL_MAIN]":
(PID.TID 0000.0001)           User time:   1.1138309240341187
(PID.TID 0000.0001)         System time:   5.5991999804973602E-002
(PID.TID 0000.0001)     Wall clock time:   1.2361860275268555
(PID.TID 0000.0001)          No. starts:           1
(PID.TID 0000.0001)           No. stops:           1
(PID.TID 0000.0001)   Seconds in section "INITIALISE_VARIA    [THE_MAIN_LOOP]":
(PID.TID 0000.0001)           User time:   6.1990976333618164E-002
(PID.TID 0000.0001)         System time:   1.0997999459505081E-002
(PID.TID 0000.0001)     Wall clock time:   9.0990066528320312E-002
(PID.TID 0000.0001)          No. starts:           1
(PID.TID 0000.0001)           No. stops:           1
(PID.TID 0000.0001)   Seconds in section "MAIN LOOP           [THE_MAIN_LOOP]":
(PID.TID 0000.0001)           User time:   1.0518399477005005
(PID.TID 0000.0001)         System time:   4.4994000345468521E-002
(PID.TID 0000.0001)     Wall clock time:   1.1451699733734131
(PID.TID 0000.0001)          No. starts:           1
(PID.TID 0000.0001)           No. stops:           1
(PID.TID 0000.0001)   Seconds in section "MAIN_DO_LOOP        [THE_MAIN_LOOP]":
(PID.TID 0000.0001)           User time:   1.0518399477005005
(PID.TID 0000.0001)         System time:   4.4994000345468521E-002
(PID.TID 0000.0001)     Wall clock time:   1.1451263427734375
(PID.TID 0000.0001)          No. starts:           4
(PID.TID 0000.0001)           No. stops:           4
(PID.TID 0000.0001)   Seconds in section "FORWARD_STEP        [MAIN_DO_LOOP]":
(PID.TID 0000.0001)           User time:   1.0518399477005005
(PID.TID 0000.0001)         System time:   4.4994000345468521E-002
(PID.TID 0000.0001)     Wall clock time:   1.1450581550598145
(PID.TID 0000.0001)          No. starts:           4
(PID.TID 0000.0001)           No. stops:           4
(PID.TID 0000.0001)   Seconds in section "DO_STATEVARS_DIAGS  [FORWARD_STEP]":
(PID.TID 0000.0001)           User time:   4.0000081062316895E-003
(PID.TID 0000.0001)         System time:   0.0000000000000000
(PID.TID 0000.0001)     Wall clock time:   4.8868656158447266E-003
(PID.TID 0000.0001)          No. starts:           8
(PID.TID 0000.0001)           No. stops:           8
(PID.TID 0000.0001)   Seconds in section "LOAD_FIELDS_DRIVER  [FORWARD_STEP]":
(PID.TID 0000.0001)           User time:   1.0999858379364014E-002
(PID.TID 0000.0001)         System time:   0.0000000000000000
(PID.TID 0000.0001)     Wall clock time:   1.0836362838745117E-002
(PID.TID 0000.0001)          No. starts:           4
(PID.TID 0000.0001)           No. stops:           4
(PID.TID 0000.0001)   Seconds in section "EXF_GETFORCING     [LOAD_FLDS_DRIVER]":
(PID.TID 0000.0001)           User time:   1.9999146461486816E-003
(PID.TID 0000.0001)         System time:   0.0000000000000000
(PID.TID 0000.0001)     Wall clock time:   1.6701221466064453E-003
(PID.TID 0000.0001)          No. starts:           4
(PID.TID 0000.0001)           No. stops:           4
(PID.TID 0000.0001)   Seconds in section "EXTERNAL_FLDS_LOAD [LOAD_FLDS_DRIVER]":
(PID.TID 0000.0001)           User time:   0.0000000000000000
(PID.TID 0000.0001)         System time:   0.0000000000000000
(PID.TID 0000.0001)     Wall clock time:   4.2581558227539062E-004
(PID.TID 0000.0001)          No. starts:           4
(PID.TID 0000.0001)           No. stops:           4
(PID.TID 0000.0001)   Seconds in section "DO_ATMOSPHERIC_PHYS [FORWARD_STEP]":
(PID.TID 0000.0001)           User time:   0.0000000000000000
(PID.TID 0000.0001)         System time:   0.0000000000000000
(PID.TID 0000.0001)     Wall clock time:   3.6001205444335938E-005
(PID.TID 0000.0001)          No. starts:           4
(PID.TID 0000.0001)           No. stops:           4
(PID.TID 0000.0001)   Seconds in section "DO_OCEANIC_PHYS     [FORWARD_STEP]":
(PID.TID 0000.0001)           User time:   9.9897384643554688E-004
(PID.TID 0000.0001)         System time:   0.0000000000000000
(PID.TID 0000.0001)     Wall clock time:   5.3596496582031250E-004
(PID.TID 0000.0001)          No. starts:           4
(PID.TID 0000.0001)           No. stops:           4
(PID.TID 0000.0001)   Seconds in section "GCHEM_CALC_TENDENCY [FORWARD_STEP]":
(PID.TID 0000.0001)           User time:   0.0000000000000000
(PID.TID 0000.0001)         System time:   0.0000000000000000
(PID.TID 0000.0001)     Wall clock time:   3.4809112548828125E-005
(PID.TID 0000.0001)          No. starts:           4
(PID.TID 0000.0001)           No. stops:           4
(PID.TID 0000.0001)   Seconds in section "THERMODYNAMICS      [FORWARD_STEP]":
(PID.TID 0000.0001)           User time:  0.18297314643859863
(PID.TID 0000.0001)         System time:   0.0000000000000000
(PID.TID 0000.0001)     Wall clock time:  0.18404293060302734
(PID.TID 0000.0001)          No. starts:           4
(PID.TID 0000.0001)           No. stops:           4
(PID.TID 0000.0001)   Seconds in section "TRC_CORRECTION_STEP [FORWARD_STEP]":
(PID.TID 0000.0001)           User time:   9.9969506263732910E-003
(PID.TID 0000.0001)         System time:   0.0000000000000000
(PID.TID 0000.0001)     Wall clock time:   9.7968578338623047E-003
(PID.TID 0000.0001)          No. starts:           4
(PID.TID 0000.0001)           No. stops:           4
(PID.TID 0000.0001)   Seconds in section "GCHEM_FORCING_SEP  [FORWARD_STEP]":
(PID.TID 0000.0001)           User time:   2.2997081279754639E-002
(PID.TID 0000.0001)         System time:   0.0000000000000000
(PID.TID 0000.0001)     Wall clock time:   2.2832870483398438E-002
(PID.TID 0000.0001)          No. starts:           4
(PID.TID 0000.0001)           No. stops:           4
(PID.TID 0000.0001)   Seconds in section "GCHEM_DIAGNOSTICS [GCHEM_FORCING_SEP]":
(PID.TID 0000.0001)           User time:   1.9990205764770508E-003
(PID.TID 0000.0001)         System time:   0.0000000000000000
(PID.TID 0000.0001)     Wall clock time:   9.2434883117675781E-004
(PID.TID 0000.0001)          No. starts:           4
(PID.TID 0000.0001)           No. stops:           4
(PID.TID 0000.0001)   Seconds in section "GUD_CONS [GCHEM_FORCING_SEP]":
(PID.TID 0000.0001)           User time:   0.0000000000000000
(PID.TID 0000.0001)         System time:   0.0000000000000000
(PID.TID 0000.0001)     Wall clock time:   6.9618225097656250E-005
(PID.TID 0000.0001)          No. starts:           8
(PID.TID 0000.0001)           No. stops:           8
(PID.TID 0000.0001)   Seconds in section "GUD_FORCING [GCHEM_FORCING_SEP]":
(PID.TID 0000.0001)           User time:   2.0998060703277588E-002
(PID.TID 0000.0001)         System time:   0.0000000000000000
(PID.TID 0000.0001)     Wall clock time:   2.1662950515747070E-002
(PID.TID 0000.0001)          No. starts:           4
(PID.TID 0000.0001)           No. stops:           4
(PID.TID 0000.0001)   Seconds in section "GUD_LIGHT [GUD_FORCING]":
(PID.TID 0000.0001)           User time:   1.0000467300415039E-003
(PID.TID 0000.0001)         System time:   0.0000000000000000
(PID.TID 0000.0001)     Wall clock time:   2.4299621582031250E-003
(PID.TID 0000.0001)          No. starts:           4
(PID.TID 0000.0001)           No. stops:           4
(PID.TID 0000.0001)   Seconds in section "GUD_FE_CHEM [GUD_FORCING]":
(PID.TID 0000.0001)           User time:   0.0000000000000000
(PID.TID 0000.0001)         System time:   0.0000000000000000
(PID.TID 0000.0001)     Wall clock time:   1.1515617370605469E-004
(PID.TID 0000.0001)          No. starts:           8
(PID.TID 0000.0001)           No. stops:           8
(PID.TID 0000.0001)   Seconds in section "GUD_FE_DUST [GUD_FORCING]":
(PID.TID 0000.0001)           User time:   0.0000000000000000
(PID.TID 0000.0001)         System time:   0.0000000000000000
(PID.TID 0000.0001)     Wall clock time:   3.8146972656250000E-005
(PID.TID 0000.0001)          No. starts:           4
(PID.TID 0000.0001)           No. stops:           4
(PID.TID 0000.0001)   Seconds in section "GUD_FE_SCAV [GUD_FORCING]":
(PID.TID 0000.0001)           User time:   0.0000000000000000
(PID.TID 0000.0001)         System time:   0.0000000000000000
(PID.TID 0000.0001)     Wall clock time:   3.7193298339843750E-005
(PID.TID 0000.0001)          No. starts:           4
(PID.TID 0000.0001)           No. stops:           4
(PID.TID 0000.0001)   Seconds in section "GUD_FE_SED [GUD_FORCING]":
(PID.TID 0000.0001)           User time:   0.0000000000000000
(PID.TID 0000.0001)         System time:   0.0000000000000000
(PID.TID 0000.0001)     Wall clock time:   3.4332275390625000E-005
(PID.TID 0000.0001)          No. starts:           4
(PID.TID 0000.0001)           No. stops:           4
(PID.TID 0000.0001)   Seconds in section "GUD_MODEL [GUD_FORCING]":
(PID.TID 0000.0001)           User time:   6.9999098777770996E-003
(PID.TID 0000.0001)         System time:   0.0000000000000000
(PID.TID 0000.0001)     Wall clock time:   6.8380832672119141E-003
(PID.TID 0000.0001)          No. starts:           4
(PID.TID 0000.0001)           No. stops:           4
(PID.TID 0000.0001)   Seconds in section "GUD_SINKING [GUD_FORCING]":
(PID.TID 0000.0001)           User time:   1.1998116970062256E-002
(PID.TID 0000.0001)         System time:   0.0000000000000000
(PID.TID 0000.0001)     Wall clock time:   1.0787248611450195E-002
(PID.TID 0000.0001)          No. starts:           4
(PID.TID 0000.0001)           No. stops:           4
(PID.TID 0000.0001)   Seconds in section "GUD_STEP [GUD_FORCING]":
(PID.TID 0000.0001)           User time:   0.0000000000000000
(PID.TID 0000.0001)         System time:   0.0000000000000000
(PID.TID 0000.0001)     Wall clock time:   2.8586387634277344E-004
(PID.TID 0000.0001)          No. starts:           4
(PID.TID 0000.0001)           No. stops:           4
(PID.TID 0000.0001)   Seconds in section "DIAGS_FILL [GUD_FORCING]":
(PID.TID 0000.0001)           User time:   0.0000000000000000
(PID.TID 0000.0001)         System time:   0.0000000000000000
(PID.TID 0000.0001)     Wall clock time:   1.8405914306640625E-004
(PID.TID 0000.0001)          No. starts:           4
(PID.TID 0000.0001)           No. stops:           4
(PID.TID 0000.0001)   Seconds in section "BLOCKING_EXCHANGES  [FORWARD_STEP]":
(PID.TID 0000.0001)           User time:   8.9980363845825195E-003
(PID.TID 0000.0001)         System time:   0.0000000000000000
(PID.TID 0000.0001)     Wall clock time:   9.0739727020263672E-003
(PID.TID 0000.0001)          No. starts:           4
(PID.TID 0000.0001)           No. stops:           4
(PID.TID 0000.0001)   Seconds in section "DO_STATEVARS_TAVE   [FORWARD_STEP]":
(PID.TID 0000.0001)           User time:   0.0000000000000000
(PID.TID 0000.0001)         System time:   0.0000000000000000
(PID.TID 0000.0001)     Wall clock time:   3.4403800964355469E-004
(PID.TID 0000.0001)          No. starts:           4
(PID.TID 0000.0001)           No. stops:           4
(PID.TID 0000.0001)   Seconds in section "MONITOR             [FORWARD_STEP]":
(PID.TID 0000.0001)           User time:   2.9998421669006348E-003
(PID.TID 0000.0001)         System time:   0.0000000000000000
(PID.TID 0000.0001)     Wall clock time:   2.8162002563476562E-003
(PID.TID 0000.0001)          No. starts:           4
(PID.TID 0000.0001)           No. stops:           4
(PID.TID 0000.0001)   Seconds in section "DO_THE_MODEL_IO     [FORWARD_STEP]":
(PID.TID 0000.0001)           User time:  0.79687815904617310
(PID.TID 0000.0001)         System time:   3.8994003087282181E-002
(PID.TID 0000.0001)     Wall clock time:  0.84291028976440430
(PID.TID 0000.0001)          No. starts:           4
(PID.TID 0000.0001)           No. stops:           4
(PID.TID 0000.0001)   Seconds in section "PTRACERS_RESET      [FORWARD_STEP]":
(PID.TID 0000.0001)           User time:   0.0000000000000000
(PID.TID 0000.0001)         System time:   0.0000000000000000
(PID.TID 0000.0001)     Wall clock time:   3.8146972656250000E-005
(PID.TID 0000.0001)          No. starts:           4
(PID.TID 0000.0001)           No. stops:           4
(PID.TID 0000.0001)   Seconds in section "DO_WRITE_PICKUP     [FORWARD_STEP]":
(PID.TID 0000.0001)           User time:   1.0997891426086426E-002
(PID.TID 0000.0001)         System time:   5.9999972581863403E-003
(PID.TID 0000.0001)     Wall clock time:   5.6293010711669922E-002
(PID.TID 0000.0001)          No. starts:           4
(PID.TID 0000.0001)           No. stops:           4
(PID.TID 0000.0001) // ======================================================
(PID.TID 0000.0001) // Tile <-> Tile communication statistics
(PID.TID 0000.0001) // ======================================================
(PID.TID 0000.0001) // o Tile number: 000001
(PID.TID 0000.0001) //         No. X exchanges =              0
(PID.TID 0000.0001) //            Max. X spins =              0
(PID.TID 0000.0001) //            Min. X spins =     1000000000
(PID.TID 0000.0001) //          Total. X spins =              0
(PID.TID 0000.0001) //            Avg. X spins =       0.00E+00
(PID.TID 0000.0001) //         No. Y exchanges =              0
(PID.TID 0000.0001) //            Max. Y spins =              0
(PID.TID 0000.0001) //            Min. Y spins =     1000000000
(PID.TID 0000.0001) //          Total. Y spins =              0
(PID.TID 0000.0001) //            Avg. Y spins =       0.00E+00
(PID.TID 0000.0001) // o Thread number: 000001
(PID.TID 0000.0001) //            No. barriers =          28622
(PID.TID 0000.0001) //      Max. barrier spins =              1
(PID.TID 0000.0001) //      Min. barrier spins =              1
(PID.TID 0000.0001) //     Total barrier spins =          28622
(PID.TID 0000.0001) //      Avg. barrier spins =       1.00E+00
PROGRAM MAIN: Execution ended Normally
